44
CSD_code = CUBZAC | q = 0 | S = 0 | Stoichiometry = C17H20NO5Re | MND = 6
Re        8.60026228452873    7.96660987057153   11.38090441379945
N         9.23917572159854    9.94459457251508   10.63839377171573
O         7.24096746754958    5.30643839564370   12.17537013892084
O         6.69301598614123    8.89526169046291   11.59781488864483
O        10.99608291560269    6.18792350665343   10.57023830325316
O         9.67767271687130    8.53849173486434   14.21356730449751
O         7.55528428867098    7.89275764566186    9.21433468611724
H         6.68010953220010    8.20857233267648    9.49894066165598
C         7.76752820258827    6.28519986299737   11.90251462144732
C         8.50406788053191   11.00599698466809   10.69015475156494
H         8.94584994489650   11.93615235595641   10.31362261230492
C        10.15072438107332    6.90848446855278   10.87927639126617
C         9.29996969792975    8.27694996593534   13.16216305535436
C         7.39578063949289    6.76741070768305    8.37419445250103
H         6.82409160116988    7.04109444367697    7.48238026884701
H         6.89494731061820    5.94194908902407    8.88875646830482
H         8.39177616390416    6.44399737667175    8.07455537610364
C         7.17176280002216   11.19127421368606   11.15550325460439
C         6.33003564221203   10.12266342689985   11.58652088249713
C         5.00479970535774   10.44679244340695   11.97881483410184
H         4.37333314270670    9.63152481913846   12.30173331899171
C         4.54917387601000   11.73508856478096   11.96716711409702
H         3.53788547204277   11.95092399533882   12.28141215989069
C         5.38108770923980   12.78093080454146   11.55130809120287
H         5.01237615311947   13.79520666907249   11.54558315433375
C         6.66007435899980   12.50373463514333   11.15242123461959
H         7.30911630486257   13.30611541134052   10.82601301718829
C        10.56182583380041   10.14131058136516   10.05798623962663
H        10.67557437200182   11.20118566067383    9.77657880427029
C        10.72117489431072    9.31407472319253    8.77783968857496
H         9.94687727056123    9.60713958400730    8.06324277803799
H        10.58264199726736    8.25668366655004    9.00887524530529
C        12.10378369220557    9.52493218381938    8.17055707173597
H        12.20777573339255    8.90474445324938    7.27813071495129
H        12.21439647641151   10.56894372373281    7.86558035156261
C        13.19051429669298    9.17489413012384    9.18159437975502
H        13.10524908870963    8.12194158496238    9.45634399544541
H        14.17495019164948    9.33038306479103    8.73632439244953
C        13.04269878070057   10.03591706963595   10.43159377098577
H        13.16590208149135   11.08866315357033   10.16440899401390
H        13.81865657701532    9.78201815173333   11.15518026180333
C        11.67158998655475    9.82195895209509   11.06543498912922
H        11.55402918516785   10.46502969726122   11.94074589334257
H        11.58180764212740    8.78643963167219   11.39962320118507

