112
CSD_code = CUCBAF | q = 0 | S = 0 | Stoichiometry = C51H57NO2Zr | MND = 5
Zr        6.48775506475160   20.77424166644150   -0.07508252069524
N         8.49162828188113   20.59470328214113    0.10310189395596
O         7.41638593461017   21.17722304375655   -2.15902300607298
O         6.14340609764773   19.63436759600514    1.41255840634739
C         8.81271435010620   20.87666951283309   -2.24162305429827
H         9.37506576583182   21.82114640808017   -2.23667874547615
H         9.03339409835167   20.33678053995489   -3.16994653438576
C         9.22931400719618   20.05693965882411   -1.00156467211384
H        10.31926331029633   20.22819948748419   -0.86088315127744
C         9.01007441468963   20.26604875454649    1.40910662878498
H         8.86788635941783   21.15434945902704    2.05345729061934
H        10.09779646820536   20.08534285204200    1.35336860471840
C         8.36826947650491   19.10094356097990    2.14902181546154
C         9.17427249859314   18.27466839353541    2.91383775653560
H        10.24380986331810   18.41954474120944    2.84913986032219
C         8.66015674548104   17.29675746457242    3.75679356383073
C         7.27944562717540   17.21259492118298    3.86042174723005
H         6.84012712664776   16.49311364961859    4.52889034285121
C         6.43338051613563   18.02217591143219    3.12038690769754
C         6.96643425878226   18.94047907374719    2.19010771283524
C         4.82673484342490   19.94906364664626   -1.40767579431919
H         4.90600285289836   19.78398761461410   -2.48843694271375
H         4.54650244662030   19.02260259605727   -0.89449212462160
C         3.96151181086279   21.05970659514660   -1.06381515104563
C         3.51237156601182   21.23045968301760    0.26928844876785
H         3.77749157695922   20.48156187497100    1.01226112085814
C         2.72803741087235   22.30586137051698    0.62811235970417
H         2.38977185002621   22.39999888197025    1.65149953109838
C         2.36726951960707   23.26681935005597   -0.30939001461157
H         1.75917360564472   24.11124432005745   -0.02248855561881
C         2.78460703125753   23.11699939901807   -1.62231311727057
H         2.49123493027918   23.84609843076655   -2.36595123656723
C         3.55491617632987   22.03371234521785   -1.99807436494239
H         3.82399576267578   21.91068058353435   -3.04178372749019
C         6.10802410700263   22.89266754547144    0.59627049019391
H         5.64630868338081   23.43705580273237   -0.24283326395307
H         5.44750154498882   22.90855198321173    1.47349868056968
C         7.44283224882459   23.38180556478842    0.90832266628112
C         8.28197176235139   23.92720334218199   -0.08095725480633
H         7.89869922024893   24.03150104068827   -1.09150162277767
C         9.55792670171512   24.35854908681600    0.21467987221992
H        10.18075401743069   24.77326252331244   -0.56728289513215
C        10.04492465698141   24.28493410692191    1.51169362793084
H        11.04171778687658   24.63047196093583    1.74160227837139
C         9.22795976666500   23.78025866519637    2.51107342402286
H         9.59021277325805   23.73670094358629    3.52946834206349
C         7.95339663348164   23.33565214458331    2.21881364324072
H         7.31968255186033   22.95408156814598    3.01310383901105
C         6.98695571689037   22.10481378120812   -3.15479443375870
H         7.70711911150357   22.93159303382450   -3.23029046385974
H         6.02874376088018   22.49839448011915   -2.79596692082822
C         6.79889465808815   21.45805337290776   -4.52537860942500
H         7.74766220205678   21.13349766956978   -4.94528988697083
H         6.35135652723175   22.17478004264084   -5.20813985370298
H         6.13896195533358   20.59742931149987   -4.44253355203355
C         9.06772537444517   18.51094492988102   -1.17442263183398
H         9.38936669835826   18.07817900795805   -0.21839186101986
C         9.97226618974153   17.95016696623005   -2.27144487547522
H         9.98126168051630   16.86323816844660   -2.22748852821673
H        10.99395597419507   18.30311839243316   -2.14894823108520
H         9.62462468634103   18.23914340493437   -3.26090599012743
C         7.61288318320437   18.10674063254234   -1.40547075238609
H         7.24353634515723   18.50461470790889   -2.35405495896466
H         6.98656178037433   18.47889462688280   -0.57966594064075
H         7.53235903255616   17.02056970798991   -1.43825909454707
C         9.60305861461638   16.39363425711043    4.53685826221352
C        10.45520778273516   17.25228817696506    5.48158377692730
H        11.04923733798520   17.97471161141901    4.92886870062532
H        11.13030736195891   16.62261949021132    6.05785457656362
H         9.81433279221868   17.79591142447485    6.17226268726749
C        10.51432816372846   15.64837666783947    3.55121250271653
H        11.11241347231073   16.34110876348938    2.96587476715204
H         9.91605199741159   15.05065297947441    2.86661677234314
H        11.18914296572930   14.98546874108780    4.08913685625823
C         8.85945931863187   15.35167162456234    5.37739722918151
H         9.58035574758821   14.71975503763302    5.89285515239535
H         8.23852808935844   14.71448437706462    4.75180363296340
H         8.23276236295185   15.82758368822415    6.12781799563221
C         4.91202875301604   17.90621840142924    3.22087165486186
C         4.52654815930037   16.85019433923384    4.25330341332797
C         4.00168196318775   15.61052319283274    3.91862921856099
H         3.84334036489835   15.34789109654603    2.88354909615784
C         3.66990137858148   14.69475272188373    4.90480758931494
H         3.25949259717868   13.73572882634951    4.62292275849118
C         3.85974996943760   15.00114891568099    6.23922292397840
H         3.60086215525248   14.28546910007759    7.00560250067927
C         4.38463185248731   16.23607104046772    6.58489615025138
H         4.53894383665933   16.48734250230398    7.62431500976496
C         4.71120355102758   17.14999689486334    5.60239838939425
H         5.12213220470207   18.11077118194858    5.87770996703477
C         4.26078815465449   19.20721135530090    3.69061022798744
C         4.93627656845543   20.41512629888689    3.81746741821114
H         5.99871849432415   20.47908405721062    3.63528240692045
C         4.26640900962072   21.56388172491241    4.20936725346152
H         4.81098848249552   22.49394831852519    4.29229221326030
C         2.91657442271484   21.52779613275315    4.50549853251405
H         2.39707087300098   22.42669020989776    4.80410004760632
C         2.24505122281255   20.31894583706429    4.44220214169693
H         1.19812450891101   20.26434529971538    4.70425820762588
C         2.91229512329647   19.17444438787278    4.04783916416388
H         2.38024268989456   18.23314699881261    4.03695707451173
C         4.40936182341886   17.49065636150677    1.83690271312227
C         3.18837534069234   17.89005113866361    1.30715877427509
H         2.55725663105196   18.58276100889904    1.84022822850433
C         2.74978102903872   17.41115244688641    0.08285861543582
H         1.79697303665881   17.74234343018392   -0.30383336917177
C         3.52163081582166   16.52106421457244   -0.64174459530783
H         3.17612505659251   16.14526344015274   -1.59359933705642
C         4.74487347681843   16.12095189659687   -0.13084369560516
H         5.35835089238286   15.42161268652751   -0.68138702095940
C         5.18039520431066   16.59731978157882    1.09236647139853
H         6.12808536883803   16.25697273704818    1.48471042284204

