34
CSD_code = CUCKOB | q = 1 | S = 0 | Stoichiometry = C15H11N4O3Pd(1+) | MND = 4
Pd        7.30771181058306    8.47531323923715    0.92521128526579
N         6.63370253561377    9.83094320594659    2.24914908882851
N         8.82692703790662    8.54092134546434    1.99324062889014
N         8.43918491621632    7.21321941195537   -0.15715404356133
N         4.96795897812023    7.43316792476974    0.30798624959725
O         5.63831958382413    8.38446376181733   -0.22847391239393
O         5.49050013847173    6.88795200142157    1.28935166725050
O         3.91111166837078    7.12444961192892   -0.14131773270837
C         5.45347446767811   10.43840558142443    2.28417072221019
H         4.78558824769794   10.25631054439712    1.44827997960389
C         5.08482708051078   11.27543764772814    3.32844914409852
H         4.11693478439848   11.74918030196953    3.32223625015476
C         5.97916553290181   11.48143301969032    4.36756201966726
H         5.72142657462838   12.12171998205170    5.19666263179261
C         7.21486010931041   10.85217564597287    4.32899727293946
H         7.92503882667721   10.99832620543689    5.12633447324226
C         7.52536958867397   10.02639394610211    3.25330150768841
C         8.79327781058090    9.29616993132715    3.09862627453264
C         9.89230681781974    9.30926202774942    3.95475376095110
H         9.89482487955624    9.91164047586131    4.84751549772404
C        10.99274941631083    8.52451654403806    3.63612740007218
H        11.85616642552255    8.52602444135797    4.28252179255820
C        10.98557944090115    7.72913731511531    2.49797679572989
H        11.83469231699993    7.10967024450658    2.26256645867205
C         9.86067531943419    7.75083352179666    1.67619149315632
C         9.63000767819539    6.97413660729944    0.44815831533039
C        10.52294116411552    6.04750477374357   -0.08061696263182
H        11.46418386136693    5.85734128416523    0.40858872059277
C        10.18660944845754    5.36578588067871   -1.24104443913683
H        10.86557165550114    4.64010658704763   -1.66080731942194
C         8.96903239441362    5.62967734898315   -1.84921547599709
H         8.67440072805270    5.12186265391689   -2.75290050939875
C         8.12102081343637    6.56475835409253   -1.27142976653661
H         7.16275794775261    6.80625863100081   -1.71999926876998

