73
CSD_code = CUCMOE | q = 0 | S = 0 | Stoichiometry = C28H36Cl2N4PdS2 | MND = 4
Pd       13.17978067012482   13.87331248901026   -5.06493472353614
Cl       15.33292412823202   14.53431001196775   -4.58957204913064
Cl       13.69395458548956   13.59239160419889   -7.30035388471843
S         9.06682849300768   15.02983886158592   -7.87827487190087
S        15.34670034430796   13.29176280770076   -0.56756924055979
N        10.65181928771132   13.26863655543700   -6.56200075893330
N        11.17541006043812   11.73179980351713   -5.15632767013267
N        13.17030916485105   13.97817872898028   -2.03882167992101
N        11.82361415976611   15.38527405041481   -2.94268224814336
C        11.48136461659481   12.98657413245361   -5.54370487809479
C         9.83221095378094   12.20039881175315   -6.81834865370157
H         9.08649994947257   12.21689739422948   -7.58513360326366
C        10.15258304743737   11.23634968305771   -5.92770072772095
H         9.75881904804356   10.25104373980748   -5.78777794530779
C        10.70948325070534   14.48547282752844   -7.32105822522530
H        11.34803550726510   14.35214362127341   -8.19872510861283
H        11.13552713346602   15.26853573410830   -6.68392789995427
C         9.17411584402777   14.57216374308605   -9.63557286643757
H         8.21772124661238   14.82236370214682  -10.08258857990681
H         9.36458997545399   13.50776252944592   -9.73529735452429
H         9.96601465615676   15.14784724482891  -10.10533489974726
C        11.75439213767242   11.03180688147371   -4.05960546949186
C        10.97198845765230   10.80112338358254   -2.92611350494669
C        11.51916628014597   10.08807065018052   -1.86820468489146
H        10.91554780949738    9.91486036841643   -0.98884619813297
C        12.81235818398611    9.58983475879702   -1.92132845431349
C        13.56456186777621    9.82198859634859   -3.06499922839395
H        14.57199844444941    9.43658134349903   -3.11908170473912
C        13.06415293965938   10.54257600590744   -4.14098721516396
C         9.55417023124049   11.28323833976235   -2.83654066853016
H         8.86988558452678   10.49459223965255   -3.15060056256020
H         9.38284559740363   12.14907141058860   -3.47083629167283
H         9.30843924995454   11.54328856336759   -1.80932469332626
C        13.40364109907624    8.83700145940366   -0.77042095139292
H        13.88584163165372    7.92560944780285   -1.11758472408943
H        12.64243104990200    8.57704632056788   -0.03960404535620
H        14.16179464166090    9.44608154939002   -0.27767719661376
C        13.92431039430482   10.76877554142729   -5.34345865065560
H        14.69773173705070   10.00719646468972   -5.40822525442946
H        14.43116123029921   11.74883735951000   -5.26970698016048
H        13.34397245806982   10.76430586275031   -6.26652796141760
C        12.67746014227941   14.37893676706904   -3.22278671106935
C        12.63091032967917   14.72072386666000   -1.01994640313879
H        12.90531578875036   14.55940307361298    0.00196617505990
C        11.78521742873814   15.60812534976115   -1.58724976309895
H        11.18113264631578   16.37769501732269   -1.15357018401584
C        14.13193643213169   12.92538694183695   -1.86928649916178
H        14.65642900674302   12.78099349652324   -2.82190773503752
H        13.63947189427780   12.00097560579140   -1.55741377017475
C        16.18532415296049   14.72655211652215   -1.29451153077977
H        17.20790189990797   14.71804605484533   -0.93337721881244
H        15.68472591224280   15.63713415475078   -0.97557967476249
H        16.16063140476230   14.63598080412648   -2.37957377650129
C        11.01372644229198   16.08993788978258   -3.87786386904399
C         9.62416829133637   15.95430730745703   -3.79550828695142
C         8.82687840163145   16.68995406402590   -4.65759983889349
H         7.75386637902945   16.58331480437165   -4.59822991806463
C         9.37290520803283   17.56326846581656   -5.58828371818622
C        10.75234687605482   17.66882142107995   -5.66141023810252
H        11.19602542309914   18.33448683615912   -6.38754551801065
C        11.59313082177713   16.94190228694282   -4.82529070855383
C         8.97807714714160   15.04616202910503   -2.79096121692085
H         8.07743311575872   14.60586259108358   -3.21336481417294
H         8.68617086749738   15.60915458055434   -1.90398678331559
H         9.64883474112472   14.24940032625128   -2.47984409885747
C         8.48405713720975   18.35377773462157   -6.49494250697094
H         7.67490965051090   18.81452028805265   -5.93208330105307
H         8.04149002785759   17.69246862165336   -7.23874359257738
H         9.04338557626218   19.12947244382632   -7.01051074528607
C        13.07577579525239   17.08387388917339   -4.97267997540121
H        13.32599245814117   18.04989664137260   -5.40522764642537
H        13.45933279294244   16.30620150436424   -5.65887940304061
H        13.59503865914387   16.97851840188451   -4.01972441910338

