91
CSD_code = CUCRUN | q = 0 | S = 0 | Stoichiometry = C36H51O3Re | MND = 8
Re       16.01498593968513    5.04465774197414   -5.09932298499714
C        12.05026117131003    1.68427182681142   -2.06595062473084
H        11.92405572565109    0.65653122652548   -1.72143271663359
H        11.13278446694325    1.97599874236797   -2.58019887527726
C        13.20384722098726    1.72015522293522   -3.05864107440879
H        13.02192477415266    1.00213256538236   -3.86278434308004
H        14.12469258211515    1.41989215494666   -2.55314062656253
C        13.38795763743883    3.12665744850160   -3.65345778223654
C        13.29537273795667    4.14781544837196   -2.55065327071334
H        13.65755693335990    5.13518958999867   -2.82297408567855
C        12.83159797383080    3.93899585220506   -1.32701413938602
C        12.86152317229801    5.04078826481984   -0.30840101895895
H        13.22913001366022    5.96034615328774   -0.76792100398507
H        13.55373222685249    4.77232561633530    0.49488946672451
C        11.47525185880949    5.26556053729865    0.28621895159226
H        11.52522797965306    6.04767842738297    1.04518085591221
H        10.79459064403898    5.60089925301916   -0.50020041202017
C        10.94920256974794    3.97042579616120    0.89949319498109
H        11.62153387335818    3.67818278654204    1.70994925408113
C        10.89721609110825    2.87084058209015   -0.17410517042969
H        10.22920440321841    3.24224762331859   -0.96322302084428
C        12.27040186364324    2.61243800272882   -0.85622701317374
C        10.27267794347697    1.59136024855588    0.39439235381795
H        10.92962620609988    1.16589413928077    1.15193909850196
H        10.16560106417171    0.85260716190826   -0.40136840582232
C         8.88960047668563    1.82500220092715    1.00978590024663
H         8.19881683844314    2.15034947060337    0.22755642572753
H         8.52490187168038    0.87466232553926    1.39791853069418
C         8.94646188736172    2.89315262469444    2.10328389077490
C         9.53855302288008    4.15728175421807    1.44883764124935
H         8.89422573851165    4.39748388983123    0.59338625716138
C         9.31271120682517    5.24119023442155    2.49727590994038
H         9.29846482845991    6.23862608172993    2.06010857492200
H        10.10218136488871    5.21693577142783    3.24889303117529
C         7.94811694545385    4.86952684384220    3.10344113175278
H         7.99438048543529    4.87333473397689    4.19271737152925
H         7.19205150203126    5.59410918128823    2.80305009799417
C         7.58337455748490    3.45407587701577    2.58537908942622
H         6.94408558580326    3.55953495271020    1.70115053380000
C         9.76539152756819    2.39986010558096    3.29860938172620
H         9.72267187737227    3.10893675813934    4.11920031418276
H        10.80840104856696    2.25219234520836    3.03728139319721
H         9.37611705380115    1.44796628087950    3.65121590426657
C        13.28227749275384    1.96782372992077    0.10466044080484
H        13.02301537710084    0.93077798206760    0.30310990039837
H        13.32525449535806    2.49939618833758    1.05054506313704
H        14.27827668174172    1.98860486886973   -0.33314432063980
C         6.78778100654610    2.64930773351898    3.62755931714192
H         7.38287300808024    2.57836082041178    4.54084829621011
C         6.46064282331459    1.23674633073094    3.14403361785519
H         5.72413672723445    0.77450194823025    3.79662469054719
H         7.33957352041944    0.59961722484304    3.14322995778868
H         6.05031576213505    1.26544793539812    2.13696812693098
C         5.47405325416008    3.38059352795744    3.95781154171045
H         5.64699363184908    4.45537651140648    4.00269252608221
H         4.76720355099436    3.19780941617340    3.14445865554861
C         4.83201316643865    2.95564646871673    5.28082506681810
H         3.82277707969291    3.37376813092063    5.32164862584015
H         4.73722021679931    1.87037320953698    5.31568484345612
C         5.60896125892558    3.44584979583174    6.50181626893807
H         5.78656613786008    4.51896156110609    6.39146054237139
H         6.58213759349932    2.95311959879482    6.54698590861681
C         4.87910064530385    3.20765886021571    7.82834674503270
H         3.87331069554136    3.63709365012976    7.75250808725224
C         4.74843963698961    1.71922609991646    8.14353730434940
H         4.27862234961869    1.57894323260098    9.11466260755737
H         5.73002324602962    1.24994354309935    8.16764648332695
H         4.14048012651133    1.21177377886500    7.39945885845812
C         5.62052757586357    3.91368599087963    8.96275948525295
H         5.10120875489063    3.77052450807488    9.90769673027124
H         5.69266103591921    4.98202030161704    8.77084300622388
H         6.62796560443904    3.51438554323799    9.06223460260688
C        14.76743862810622    3.18671255969042   -4.26522506616660
C        15.14102176290508    2.89241518610687   -5.60902191688259
H        14.46811267640175    2.62601503833755   -6.41008204286558
C        16.55439888785786    2.83368694744014   -5.68275908791636
H        17.12639338575266    2.49507437911752   -6.53450150805685
C        17.07318512064216    3.08355567829942   -4.38148801623282
H        18.10150609951678    2.95167746085114   -4.07787427770275
C        15.97282743877819    3.28604496459028   -3.51211634562813
H        16.02597352256928    3.37990267334873   -2.43667993653894
C        12.31162155643780    3.43800818065843   -4.70297819011149
H        12.27936206575099    2.66988370219346   -5.47353772747551
H        12.51253446197775    4.40060294033618   -5.17257225098822
H        11.33341879011691    3.49123256448649   -4.23216311914346
C        14.71033169157425    6.00048425692463   -6.17622979063543
C        15.96140711381345    6.42272200598349   -3.73047007606217
C        17.49557662466842    5.91366382942317   -6.01389452452932
O        15.92835411828573    7.16920757119935   -2.86060305148160
O        13.90291051333260    6.49026972783771   -6.82777384737883
O        18.40224819268479    6.35188799699471   -6.55998019052566

