73
CSD_code = CUCRAT | q = 0 | S = 0 | Stoichiometry = C24H36N10NiS2 | MND = 6
Ni        2.96887367697292    3.27544752290391    1.31209961108578
S         2.09827948191237   -0.86860670782049    0.06672494782844
S         2.23608935226287    7.51605196763322    2.71934853898661
N         1.36327233953004    2.85725528488986    2.82881101272276
N         1.60974299814870    3.75979480490639   -0.51648830318096
N         4.54350237802534    4.10041876422780   -0.06143699477774
N         4.32531522104679    2.55297216959162    3.04790981688451
N         1.35506434937523    0.43052311730020    6.12672350486158
N         0.81329630536592    4.31247444227308   -4.31059077175090
N         7.42754294215961    1.80289983955223   -3.13796551781637
N         6.75805880232142   -1.58577591141335    3.56666363424465
N         3.11140951932776    1.62987548624480    0.66056937316591
N         2.94699833771237    4.95355462842865    1.97627144491234
C         0.25032576445434    3.79895704066953    2.59215147224839
C        -0.30719557711483    3.86090551716238    1.16058886426327
C         0.54328546821523    4.57513227302529    0.09500269196147
C         2.46433712161974    4.55846701455846   -1.41641822802803
C         3.75519678723260    5.11336897012908   -0.78479358389228
C         5.58234266796779    4.73899154748250    0.77034641217675
C         6.17767915465870    3.88166723012800    1.89964107189440
C         5.30988821389368    3.64820730320200    3.14934516828030
C         3.44206294700531    2.49705255048625    4.22805221866784
C         2.07795698487053    3.19913016340213    4.07231868307396
C         0.89446846443514    1.46812109868475    2.84164796043010
C        -0.01216863724448    1.03155610613313    4.01941398196985
C         0.73997718230531    0.70456959533757    5.20190913703048
C         1.06225655659541    2.60633047649006   -1.23920891916573
C        -0.00611920359306    2.87903454145416   -2.32512206125548
C         0.45586098145149    3.68061801466321   -3.42671823271582
C         5.12412650624653    3.10899316762128   -0.97412746508461
C         5.93801523262894    3.67399619085817   -2.16140033058892
C         6.76516003386294    2.63185411041062   -2.71450870577488
C         4.97766023589243    1.25159730644161    2.85713127851532
C         5.96952834362688    0.84158241727291    3.96774787474051
C         6.40824721579692   -0.51351633280002    3.74827773816332
C         2.64974070943955    0.57007389328533    0.43012750765076
C         2.61566287958374    6.04227397159387    2.27804326900088
H         0.58367755876740    4.80091924852812    2.86252532846813
H        -0.59140241158298    3.55590029776677    3.25686836550420
H        -1.23533448136727    4.43374689458379    1.23870815154292
H        -0.58290780040717    2.86265569597684    0.82206227622863
H        -0.13543665759603    4.94306334703334   -0.69044806934199
H         1.00347117812517    5.45407081678244    0.54626290578310
H         1.90856638362134    5.41382941513126   -1.82086533576604
H         2.74652089785219    3.92923883785928   -2.26208143372709
H         4.34039453324691    5.57318880653836   -1.59212876477890
H         3.49280266414794    5.90662956496935   -0.08605613647361
H         5.15457997713404    5.63470888668972    1.22168751172948
H         6.41915483532871    5.06484091992119    0.13536768418412
H         7.06035369216112    4.42823871655980    2.24249270364024
H         6.53428919344044    2.93296666315795    1.50153148590296
H         5.98541447451600    3.45913240201468    3.99760928212783
H         4.76510058825891    4.56704849715334    3.37005326730976
H         3.24966716243538    1.44988298781493    4.46877518218806
H         3.92848537378614    2.94937714727553    5.10181108103677
H         2.23307818204561    4.27711449117785    4.09259196261578
H         1.48070137296275    2.93593580147468    4.95540644352991
H         1.76123930290925    0.80649393917519    2.82318702537783
H         0.34283737009844    1.29312629664337    1.91730565065143
H        -0.54370835248023    0.12657749447120    3.71254258699031
H        -0.75629741667445    1.79171543787528    4.26978222949919
H         0.61565781675504    1.91861334198345   -0.52076050784449
H         1.89229965501433    2.06967778882547   -1.70235175358140
H        -0.30641342022769    1.90779369991316   -2.73002495648655
H        -0.89469153634995    3.35167949613518   -1.89905606031972
H         4.32291541122555    2.48406677347546   -1.37030639130390
H         5.77127565702701    2.45395839893165   -0.38894304310844
H         6.59846434463352    4.48585829078850   -1.84385717787853
H         5.28379222182074    4.04442443131445   -2.95481226633723
H         4.20141169917362    0.48690645752333    2.78839631750970
H         5.49694329919843    1.24643111460281    1.89862841512788
H         5.49694860477603    0.89100103652512    4.95253311909604
H         6.85590688823030    1.48103698699680    3.96607482017518

