43
CSD_code = CUCREY | q = 0 | S = 0 | Stoichiometry = C14H16CdN6O6 | MND = 6
Cd       -1.38412910743274    6.34482440729792    3.13486374704622
O        -0.19988095601629    5.18088072189422    4.79342533694797
O        -3.44027424232183    7.83670444986547    2.43584132590013
N        -4.47062647397306    7.54759130904100    0.43996244978207
H        -5.38368746651157    7.45037604909454    0.85226363951151
H        -4.32288519017009    7.31602235729907   -0.52894261850884
N        -2.12899086783668    7.56592225836441   -0.83878954425859
N        -0.99057504593858    7.57503131945896    1.22678799046516
C        -3.39230972814907    7.65608649757035    1.23274536000135
C        -2.08975488576065    7.59985176986113    0.48441139424972
C         0.52259002927797    4.77965029598618    3.85617037643819
C         0.17041297207558    7.48202566315759    0.60114968300027
H         1.04701476016302    7.46016041772326    1.23417073782074
C         0.23702468398167    7.41351492714098   -0.78603669806631
H         1.17728739473624    7.32079451008324   -1.30414730520814
C         1.67825994317178    3.83591595976781    4.16953493628734
H         2.54456628560722    4.10279627422977    3.57016670347203
H         1.37437961138832    2.82517428244305    3.90555838074798
H         1.91442259151098    3.87144439785915    5.22940352624899
C        -0.96831500998608    7.46156173724082   -1.46836839926912
H        -1.02265790329571    7.41759989659955   -2.54897615135261
O         0.35048015424209    5.12703879347046    2.66736186706334
O        -2.56935899866012    5.18095415282882    1.47749236574088
O         0.67295395131932    7.83471691122055    3.83423448698755
N         1.70212686047758    7.54695633301300    5.83097433805124
H         2.61546117134418    7.44911538002040    5.41942836111805
H         1.55362076101530    7.31610925817648    6.79996921341347
N        -0.64003553136133    7.56467357713559    7.10833988164245
N        -1.77754140041888    7.57672287952918    5.04225456881284
C         0.62427668086813    7.65496023930849    5.03744810224269
C        -0.67866801754574    7.59971212297860    5.78515448060397
C        -3.29158491156683    4.77959960442635    2.41495621731818
C        -2.93890249843267    7.48489366556157    5.66733361969227
H        -3.81528931562418    7.46461800956279    5.03395739494704
C        -3.00621262384222    7.41543110245561    7.05444849396275
H        -3.94685162971868    7.32368818502542    7.57204207832122
C        -4.44620885240437    3.83441567017356    2.10198931034632
H        -5.31375515267881    4.10231641064892    2.69913958006509
H        -4.14225874094007    2.82454669405115    2.36922626813407
H        -4.68054479890063    3.86706083680621    1.04163261268685
C        -1.80110945283351    7.46115933852471    7.73733479038808
H        -1.74728571741557    7.41610551356478    8.81792687402622
O        -3.11988333144523    5.12777581954225    3.60356022315625

