47
CSD_code = CUCTUP | q = 0 | S = 0 | Stoichiometry = C12H28MoN2O2S2 | MND = 6
Mo        0.00002555290011   -0.00001261925859   -0.18146116950532
S         0.94729176674011    1.23308080279030   -2.01191509733572
O        -1.28446552436128    0.78090226629554    0.50265339110600
N         1.16517598716524    1.92869533387437    0.71443420505061
C         2.61498505080516    1.65105065698865   -1.32771680182902
C         2.52940544624489    1.89222352667240    0.19651787190773
C         3.52336340429826    0.45795265621142   -1.61316915903133
C         3.12180925048652    2.88709564890212   -2.06973881114232
C         0.50779540455715    3.19227659737471    0.40441207753373
C         1.16602810170190    1.73484211647408    2.15967702590961
H         3.05342815797609    2.82597143032393    0.45374037161985
H         3.03269154315925    1.06106061338206    0.69840734279241
H         4.53137356324997    0.64287218032163   -1.24264407597433
H         3.56861542272606    0.27390370016816   -2.68421384924843
H         3.11927642097947   -0.43022312697900   -1.12475653893314
H         4.14303805904969    3.11581373476252   -1.76826680700131
H         2.49244216907320    3.75087070520391   -1.87024044640885
H         3.10578619954237    2.69875945887890   -3.13987215444864
H        -0.53153829115333    3.13085791432974    0.72976176839964
H         0.51825407319877    3.36368193546698   -0.67165645260441
H         1.00459198168358    4.02891356684350    0.91292939523504
H         1.60387150181317    0.76357309942506    2.39256858111952
H         0.13472310255859    1.74692473959065    2.51467845607288
H         1.73526536483919    2.52754277289937    2.66459220851425
S        -0.94727912674615   -1.23309802429904   -2.01187743309206
O         1.28451036260533   -0.78093309000624    0.50268897225533
N        -1.16518562055721   -1.92870423701918    0.71444774358017
C        -2.61498806224922   -1.65105525718638   -1.32770518547121
C        -2.52941786574535   -1.89224470230775    0.19652452268752
C        -0.50779492204953   -3.19228115660601    0.40444052323216
C        -1.16604124710046   -1.73483282484240    2.15968220342584
C        -3.52334299447550   -0.45793980227644   -1.61315254215419
C        -3.12182710905290   -2.88708303692753   -2.06974581453583
H        -3.05343196553966   -2.82600217860007    0.45373690059220
H        -3.03271944923094   -1.06109074033053    0.69841610557635
H         0.53154445618998   -3.13084506663808    0.72977418671678
H        -0.51826720327260   -3.36370645335670   -0.67162268176820
H        -1.00457334490285   -4.02891266538049    0.91298252594240
H        -1.60389984997837   -0.76356890667522    2.39255972539617
H        -0.13473616902143   -1.74689427124487    2.51468237183470
H        -1.73526556737522   -2.52753654813827    2.66460876260930
H        -4.53135650703881   -0.64285449393604   -1.24263776546699
H        -3.56858284482468   -0.27386990036020   -2.68419500372509
H        -3.11924461000902    0.43021644949349   -1.12471835272593
H        -4.14305193613217   -3.11580660174534   -1.76825744221951
H        -2.49245645505955   -3.75086074352568   -1.87027798344759
H        -3.10582567768880   -2.69872545903314   -3.13987567107317

