34
CSD_code = CUCVUT | q = 0 | S = 0 | Stoichiometry = C14H14Br2FeN2S | MND = 5
C         7.55286834456784    0.65599836743560    1.62420076503511
H         8.03017359004597    1.61940437954020    1.42951694145369
H         7.25709003862462    0.60976454833131    2.66825620346631
H         6.65895679053632    0.59487540843098    1.00252829413379
C         8.47153993565126   -0.47011842443649    1.27817759988424
C         8.44386334296086   -1.67439754766311    1.96511742583845
H         7.75998987429232   -1.80050543070994    2.78877646083803
C         9.29884720630617   -2.70702545304960    1.58643326072111
H         9.28436613014473   -3.64483706127060    2.12011322827736
C        10.15435947955202   -2.51655938537579    0.52680033896643
H        10.82968325005946   -3.28750793975803    0.19307710139902
C        10.14001418656293   -1.27981772923577   -0.13285798073915
C        10.92801405532192   -0.92725615007081   -1.25203889458204
H        11.62292986874102   -1.62871469781489   -1.68717090666099
C        11.37663178121862    0.76787031299056   -2.85140015831050
C        12.27783602814899    0.03083262097292   -3.62714589093765
H        12.51518795727877   -0.98741614896132   -3.36519508011904
C        12.87681798967252    0.59151325426026   -4.73691628741065
H        13.57134466532125    0.00265256574447   -5.31643916463837
C        12.59018816192571    1.89396987545358   -5.11488702437886
H        13.05447474753709    2.32410835744807   -5.98831379539759
C        11.69146032102942    2.63656484121041   -4.37166167994037
H        11.43958289353113    3.64390425563951   -4.66530760346705
C        11.10187889575599    2.08373054028339   -3.24911701533793
C        11.00440533007880    4.40587937268814   -1.79288318971793
H        11.90046430048432    4.02168661235637   -1.31749991751939
H        10.43657661832482    4.99806207692512   -1.08243036164842
H        11.24873389029133    5.00403066464862   -2.66455201134961
Br       10.87278211017115    2.23831882162708    0.81312829740415
Br        7.59476569246974    0.93339324855741   -1.90852577857141
N         9.31036653617192   -0.28213731435627    0.26109658989711
N        10.72982441601005    0.29216244499130   -1.71568406956836
S         9.92481972427120    3.03122780692468   -2.30676407013030
Fe        9.53516184693583    1.32154290623746   -0.78083162688827

