40
CSD_code = CUCWUS | q = 0 | S = 0 | Stoichiometry = C15H18NO5V | MND = 6
V        -0.83741325276837    2.03114956944571    3.45508864675772
C         2.71714767374747    1.56265246896506    5.60383363116845
O        -0.83767640479437    0.50967885034507    3.45385174899056
H         1.05731096763819    4.33592914640040    2.67067472055058
O         0.93587707319746    2.26813980422445    4.20760431522840
H         1.13989316975052    6.81988912169094    2.62297825024151
O        -1.58700343148324    2.26689646670678    5.23000787070319
N        -0.83663736822553    4.25524397584158    3.45576542173208
H         0.71536044246833    1.11963400453803    7.28613338906368
C         0.21590331580071    4.92678418201895    3.01615291107679
H        -2.90081470519364    1.92399716526152    7.28064532852657
C         0.25706903693627    6.31801616955703    2.99155263440767
H        -1.47731368361182    2.08542299621133    8.33641116920682
C        -0.84126900443856    7.01381870854401    3.44290094584390
H        -1.92619820208942    0.50340021679957    7.69773953388753
C        -1.89197509076940    1.56770249603835    7.47457796921558
H         3.30631642668346    1.92009859785084    4.76280057422286
C        -1.02883159963323    1.79193735349418    6.25098388832948
H         2.89475698870962    0.49756892189531    5.73684762891746
C         0.33669060358579    1.50641737343005    6.35222517415402
H         3.02144018915450    2.07694396671805    6.51243529875275
C         1.24595421356626    1.79077556545234    5.32825253950521
O        -2.61072699066549    2.26992595911140    2.70316963277441
O        -0.08795143995112    2.26890983314789    1.68025985829087
C        -1.89127245971688    4.92730885131877    3.88950135697450
C        -1.93712722929129    6.31857775196140    3.90106126080020
C        -2.92127687892112    1.79458973768231    1.58178827516866
C        -0.64675032687121    1.79665541715153    0.65838837318377
H        -2.73062029368759    4.33687225603154    4.24066360984139
H        -2.82157936522834    6.82092043868029    4.26508403852644
C        -4.39260556959618    1.56701230080255    1.30658492568978
C        -2.01243129296919    1.51196205017960    0.55698390486132
C         0.21601118352902    1.57471898304041   -0.56587246821918
H        -4.98169683322393    1.92858004318146    2.14591563838673
H        -4.57105600228591    0.50144222817113    1.17850761440951
H        -4.69619559518728    2.07734619287019    0.39556572302963
H        -2.39152308694149    1.12717460485173   -0.37756580058970
H         1.22348317032642    1.93573130625872   -0.37349500090831
H        -0.20188820097344    2.08902420109457   -1.42815704579389
H         0.25491985342314    0.51015072303489   -0.78714748690959

