63
CSD_code = CUCXED | q = 0 | S = 0 | Stoichiometry = C33H21MoNOS6 | MND = 7
Mo        4.04122330230506    3.76940475998093    4.82443722589998
C         8.98635630608437    5.88573978690648    0.62835320589795
S         2.95026496661492    1.57540510444618    4.13959971698149
C         9.60577497118401    7.12742046534044    0.37173552483675
S         5.34784464007485    1.82598457578984    5.73200613148245
C         9.17036978273032    8.26865718614004    0.98332599441750
S         5.03383140649484    3.21009132586694    2.51208508418735
C         8.08152244435944    8.21510029543105    1.86378976841544
S         6.18896440351324    5.08005801087323    4.29489640133965
C         7.46503004212781    7.02494802716403    2.14132912064435
S         4.49329935943831    5.06236066228850    7.00686505801980
C         7.91138147253788    5.82319014969287    1.55821417747514
S         2.33973690585146    3.24644459300526    6.68966909058187
C         3.26059077226942    4.18377448479813    7.75116439790590
C         4.18839139172565    0.82842297608608    5.03079194808715
C         2.99678953521776    4.31351850758721    9.16986375893852
C         4.23856261944927   -0.62217140504455    5.09805916242288
C         3.13027915109860    5.57512155807359    9.72348455204289
C         4.01087874208669   -1.32033615089532    3.92743480182013
C         2.82330247710844    5.81563392099205   11.06278585524129
C         4.10412256732518   -2.71260989252014    3.88629373857095
C         2.40106531124622    4.78953980182467   11.86403721474467
C         4.40232955909769   -3.41377586199456    5.02246998416031
C         2.30155499579732    3.47635637645759   11.36120470285940
C         4.59358815267845   -2.74859643734829    6.25076398282163
C         1.92107168619984    2.40679801277449   12.19954899304211
C         4.84671771023065   -3.46991835461612    7.43677981774120
C         1.86963731724887    1.12619571429935   11.72640198017884
C         4.98611622815090   -2.82736718726411    8.63438009758489
C         2.20685713291116    0.86210323625131   10.39214619417404
C         4.87165521805159   -1.43181933965856    8.69598739414270
C         2.56312335891709    1.88051061968707    9.55064964400629
C         4.64211931498208   -0.70359977491847    7.56105786609947
C         2.60396446229820    3.21580509666132    9.99601130633277
C         4.51301866441959   -1.33011765427985    6.30620120035325
N         2.99674906583083    4.97528996682046    4.12312930020723
C         6.25943740388380    4.34527607765799    2.78123428565232
O         2.29720947015865    5.77888807181190    3.65038980660071
C         7.30353538188627    4.55253711898182    1.80070473217537
C         7.72620990877051    3.44334717090327    1.08692679925546
C         8.77861992501910    3.52214681635719    0.17596947779351
C         9.40966391322004    4.71781835118345   -0.03763898316960
H         3.79108052264904   -0.77033617390086    3.02381344786126
H         6.61783834658777    7.01189050225747    2.80826006583520
H         3.94461855929270   -3.22421384411190    2.94927781497005
H         3.44325123641358    6.39186564862632    9.08988391597595
H         4.48457613022868   -4.49084991928205    4.99878766065024
H         2.91268180775113    6.81785657522951   11.45331550995951
H         4.91508029230314   -4.54677510867170    7.37811616159782
H         2.14754059152652    4.96818974326547   12.89898537801794
H         5.17425414044782   -3.38747593076912    9.53836478830871
H         1.68341764896118    2.62288786489241   13.23118560608171
H         4.96292336438723   -0.92900079646761    9.64763922944000
H         1.58201279439435    0.31270517295156   12.37566228843931
H         4.55619415087972    0.36904465131954    7.63348004260500
H         2.18772692834862   -0.15392881178019   10.02627689549497
H         7.25014034501398    2.49150422291534    1.27256946852537
H         2.81967790526762    1.65136839160955    8.52910632322680
H         9.09493339380923    2.63128110897168   -0.34498853331676
H        10.23781182665157    4.78668523762294   -0.72809336387181
H        10.42582620478018    7.15688954762873   -0.33118812535441
H         9.64787751680786    9.21570155198266    0.78072906762030
H         7.72357485293668    9.12463360195702    2.32217584589478

