37
CSD_code = CUDBUA | q = 0 | S = 0 | Stoichiometry = C18H13BrN4Pd | MND = 4
Pd        1.48607889649456    3.58232376935286    4.42923696104679
Br       -0.19173066146519    2.00732223307066    3.94293301202727
N         4.08314551649811    4.55544323030700    3.85770809774129
N         3.26101007243450    4.30695228507493    4.80426731204073
N         1.33806708133081    3.84860350082151    6.50838479562314
N         0.39179279858016    4.31261116570641    7.21082982109080
C         2.12570008898686    4.04007265545978    2.58041315109611
C         1.49077586520061    4.04350370524623    1.34688147804896
H         0.46159023816409    3.71324535726413    1.26678827983081
C         2.17965890498133    4.41873735593140    0.20259030900500
H         1.68037235763111    4.37928536700571   -0.75463327316060
C         3.51014239225505    4.82722294365451    0.26717442677848
H         4.02514025606089    5.11513921838805   -0.63732936019556
C         4.16445447546553    4.87406446005292    1.47543024225081
H         5.18573957518656    5.21240482817516    1.55744197062810
C         3.48019525363887    4.49712649720010    2.64023376283153
C         3.66777147481573    4.16676987412919    6.10892990284440
C         4.98922480105360    4.24765860982177    6.55607797493754
H         5.76916366286293    4.43985225900231    5.83589339978705
C         5.26019833593014    4.07725797171233    7.89679828885151
H         6.27941657307259    4.13361396655568    8.24693424886853
C         4.23229908125739    3.83287494218597    8.80599936096797
H         4.46474071878033    3.70557984939309    9.85213774746781
C         2.91968338742376    3.75981600158795    8.38668414758702
H         2.11337986961012    3.56720753876599    9.07758720790830
C         2.62295016751884    3.92066742129439    7.03435790652237
C        -0.86728169365832    4.38277108730569    6.66637899150089
C        -1.07061870029507    4.93209503954234    5.38950638897921
H        -0.21818687619874    5.33430812251912    4.81641669098678
C        -2.35559035597992    5.07251477522441    4.90139084023350
H        -2.50822331561337    5.50132601554237    3.92255546753212
C        -3.44071275058300    4.66155726523345    5.65780565556798
H        -4.43988662204696    4.75710068299927    5.26225246093660
C        -3.24359251166546    4.14138528514455    6.92903862196200
H        -4.09053721742118    3.82942065544740    7.52127814163514
C        -1.97088349823477    4.01808416330289    7.44354900896682
H        -1.80244764207603    3.60187990057297    8.42457655926887

