37
CSD_code = CUDBOU | q = 0 | S = 0 | Stoichiometry = C18H13ClN4Pd | MND = 4
Pd        1.30633051199452    4.91060907826501    0.98749714287826
Cl        2.95354666341701    4.73847616364907    2.42378745252368
N         0.18745912662403    4.99976851318092   -1.59477116299079
N        -0.07503047612784    5.08974868575436   -0.34451986613213
N        -0.42968577880138    5.31789930729065    2.26329904788690
N        -0.40519490609253    5.87580190649078    3.41560746367157
C         2.40255016064440    4.80526390151366   -0.70569264961442
C         3.76433137061806    4.73103370190016   -0.94771689142573
H         4.46537323322425    4.73823629769739   -0.12300921075875
C         4.24100045614223    4.60952599379894   -2.24882011966923
H         5.30422000957778    4.51494433076918   -2.41603438295867
C         3.37107509723044    4.59637675259874   -3.33239014207931
H         3.76335450403410    4.50659231613773   -4.33464350117872
C         2.01221374660217    4.70693760792749   -3.13231894168032
H         1.31624194225008    4.72636181479043   -3.95654607505779
C         1.52028549136910    4.81794571061019   -1.82674833455364
C        -1.35615815272456    5.37207027568617    0.06466737941966
C        -2.45175900651032    5.50631505875282   -0.79234339107992
H        -2.29856822544979    5.36196537775971   -1.85029346165082
C        -3.68829696740212    5.82131727814113   -0.27188474634651
H        -4.53648025893002    5.92586231126870   -0.93091722032531
C        -3.85390104266335    6.00746705136198    1.10091955767580
H        -4.82948383222849    6.25564871580451    1.49078685071645
C        -2.78832278966559    5.87663252680720    1.96358040810933
H        -2.90157950667051    6.00291166670094    3.02956113881223
C        -1.52137890455590    5.55814700857363    1.45938556001340
C         0.45527644927559    5.38289791186655    4.35464888145083
C         0.94009821007984    4.06243233050091    4.32505612976708
H         0.62746656226840    3.39500177516803    3.52560745732754
C         1.73749567491383    3.60265240078328    5.35480689466944
H         2.10104805688696    2.58617859199739    5.33655772632545
C         2.08708283341326    4.44648375394887    6.39539178914067
H         2.72327443076339    4.08561538207499    7.18969289881412
C         1.61757559769220    5.75558686996431    6.42711755805988
H         1.89668467333644    6.40677676308804    7.24211100638841
C         0.79915837292114    6.22233009033837    5.42467687485177
H         0.43019667254284    7.23638477703751    5.42309087899978

