48
CSD_code = CUDJAN | q = 0 | S = 0 | Stoichiometry = C21H21I2N3Pd | MND = 4
Pd        2.30128697868379    7.91268852648475    7.44864833551807
I        -0.16798568117720    8.80663169856560    7.39067609395335
I         4.69022691727091    6.90459657928305    7.17782321630837
N         0.93770557820826    5.27464252232607    7.18628143568570
N         1.11261548407291    4.28396926045443    9.13488280999550
N         2.99311899295721    9.72154756657207    6.94337825970600
C         1.64769914090248    6.13737179103227    7.97620298418637
C         0.59511894824688    4.15443514937533    7.89722323258235
C         1.76955576970616    5.50595261314770    9.19499007656171
C         0.59066653591455    5.42605486448205    5.88511540173936
H         0.93871831545323    6.33799105745233    5.40169192324994
C        -0.14828136290727    4.46379629609713    5.27612681777626
H        -0.43230867466424    4.57750623213516    4.24292620617575
C        -0.55895661255373    3.30806734800371    5.98604350518303
C        -1.38900618025321    2.28158176424804    5.28927253088406
H        -1.63683746323803    1.45796480997122    5.95310668552362
H        -0.85370788781354    1.88825282220312    4.42596865618099
H        -2.31250984002029    2.73132243967681    4.92727722650214
C        -0.17671012912546    3.15768471996952    7.29944693667522
H        -0.46861059504894    2.28851218255562    7.86664195697132
C         0.92160266343066    3.33053006627278   10.20097877831342
H        -0.13618804054079    3.04760224125293   10.22576910289266
H         1.16452934287387    3.82975396009519   11.14108899587318
C         1.78759659022403    2.08653309356050   10.01478521031394
H         1.51401041189307    1.55670604251693    9.10578149588085
H         1.65533789145962    1.41820851225320   10.86110461778191
H         2.83901382185797    2.35419044201255    9.94252721602125
C         2.54404770973675    6.05624385003786   10.29902676705564
C         3.37518685141511    5.28539124181431   11.10989736363062
H         3.43723649503661    4.21785159425720   10.96926969976411
C         4.17659480770624    5.88438520483296   12.06441517938365
H         4.82139217395273    5.27169598412228   12.67699162247028
C         4.17142371306868    7.25872544327629   12.22333440678157
H         4.80607553022311    7.72253967920634   12.96329762489537
C         3.35296975391202    8.03826026826878   11.42155428113068
H         3.34075372894323    9.11181873485417   11.54840152108813
C         2.54766154760338    7.44921734014995   10.46498334512655
H         1.86395491621438    8.07325761668207    9.87711779103404
C         3.58696737922520   10.48491567591193    7.85469239539059
H         3.65834907140749   10.07220929715351    8.86122627229117
C         4.10075281569424   11.73184239888783    7.54861591139236
H         4.57328649657490   12.32463826458944    8.31568279731778
C         3.99901464121141   12.19410635357515    6.24524820412208
H         4.39158511989863   13.16187976149679    5.97283800671519
C         3.38617436871564   11.38791382072519    5.29844021376724
H         3.28867331102857   11.70561185942645    4.27259648950812
C         2.89389422417272   10.15693803835756    5.69183354336519
H         2.39970442844191    9.49166297037374    4.98327685531647

