90
CSD_code = CUDKOC | q = 0 | S = 0 | Stoichiometry = C34H50ClNO2PRh | MND = 6
C         7.49377090252701    7.14665456676624    6.66026177641233
H         8.24642118113229    7.67050298772154    7.22545238510944
C         7.87749293967635    6.33147416710656    5.60240580746291
C         6.84942831000038    5.64855629342320    4.94425248148938
C         5.50924728549593    5.93353630667546    5.20999835585684
C         6.17415199454961    7.31239922482946    7.05279852601219
C         5.15594268359682    6.73665251033337    6.29459197415826
C         5.85010959452045    8.15120701299655    8.25223905528090
H         6.75736631835523    8.54248647574384    8.70498927648641
H         5.31819060180044    7.56263637673307    8.99919147133857
H         5.21102317137804    8.98941329497677    7.97630314285413
C         3.72135797363356    6.95538881283551    6.66948279343374
H         3.05739532235734    6.37395929069849    6.03679963549667
H         3.45621683079398    8.00874811138386    6.58175443706637
H         3.55923709856551    6.66065858089457    7.70578190362306
C         9.32063723283159    6.27933803152444    5.11545847964970
C        10.23563991448437    7.23161852931894    5.89406387256487
H        10.31380392277229    6.93888710180965    6.93864321916927
H         9.88258327632147    8.25846922290390    5.83364822019862
H        11.23409025511774    7.19602366743490    5.46264744414638
C         9.33214157289065    6.72032472397603    3.64382851155367
H        10.34363129733956    6.67216062573350    3.24533587710242
H         8.97389002800159    7.74445874075019    3.55575570531406
H         8.69133136834817    6.08263764194883    3.04312136277783
C         9.90398449510842    4.86931666524088    5.24158546409804
H         9.84491096337924    4.53307266474891    6.27402057216971
H        10.94923145433150    4.87230172616706    4.93756354807983
H         9.36602852601170    4.16647376784350    4.61531856366458
C         8.55498739929617    1.77039756898900    5.69741965578214
H         9.39177561792359    2.09045350455903    6.32329876574783
H         8.90357903232281    1.65833730591736    4.66657676683508
H         8.20034595099002    0.79649399417867    6.04730251210995
C         6.88534410656782    2.88748094369664    7.04176006737567
H         6.39475734584351    1.95721783714482    7.34641784469991
H         6.15158001661403    3.68936409565631    7.03262207081008
H         7.65933196581319    3.13294562511450    7.77321868192986
C         4.47715002673766    5.40895675027974    4.28115503392953
C         4.28902635025093    4.02761036451923    4.19504794447388
C         3.22800090051042    3.48228977772647    3.47091570219433
C         2.46652707398667    4.38674243260592    2.73496114092995
H         1.65350783778967    4.01689091632951    2.13282105962164
C         2.70750728187098    5.74938268814133    2.70638913013554
C         3.71579386583124    6.28432964188686    3.50767652141404
C         3.98286311477152    7.75906215207778    3.49044256886624
H         4.85786341084801    8.00829196914208    4.08283413701656
H         3.12667014452547    8.30996515626180    3.87900781962137
H         4.15156854220032    8.09194967647291    2.46680211189886
C         1.86952893100163    6.63898374099167    1.83824872049893
H         1.11300458667791    6.06209713167972    1.31286613353338
H         2.48838270561318    7.14910720031553    1.10056708912790
H         1.37109449218396    7.40154861754207    2.43545585673205
C         2.88658239491543    1.99778555575802    3.41766045415438
C         3.26231816341789    1.26961218796423    4.71365584934254
H         2.78273898107720    0.29330835506027    4.73770925395324
H         2.93326925340296    1.83619877500881    5.58222426895384
H         4.33169731835359    1.10667111701638    4.78429381162673
C         3.64260342988665    1.38294515187829    2.23426083946213
H         3.30153868257637    1.81607024577080    1.29522557410578
H         3.48316945009256    0.30758660528849    2.20758549366715
H         4.72228317713294    1.56997681797003    2.33602419604352
C         1.37828258826302    1.78763767671196    3.20159725423391
H         1.06040436670123    2.07483032035339    2.20269753774822
H         0.80262322954489    2.35284756964879    3.93127221544431
H         1.14245120220213    0.73283828352441    3.32206945208203
C         6.95881781556690    0.57418748513311    0.71829802394713
C         8.22619028561975    0.45399085580353    1.25775208782955
C         9.46086304175781    1.15641300360366    0.74332505137568
H         9.80695877272826    0.65036759477961   -0.16492255608556
H        10.24898604789757    1.04803017048261    1.49318048149150
C         9.23648257837729    2.65403047446188    0.46514604942123
H        10.18425576211207    3.18117091810227    0.59276906366362
H         8.91900884136316    2.80822336726417   -0.56704038927828
C         8.20687098097856    3.25643044120475    1.39718647732742
C         6.85599641335922    3.35849708736595    1.07740814848729
C         6.24390327627754    2.83628056553993   -0.20210578971911
H         6.52807719870729    3.49422073752407   -1.03135655908818
H         5.15775210219601    2.89516674220162   -0.10413492614905
C         6.64420763871301    1.38171679076882   -0.52267251908545
H         5.82111102590597    0.90163474090187   -1.05539309339402
H         7.51120980865939    1.36267565015424   -1.18517032282204
Cl        6.58753523442022    0.08952733815272    3.89075356898417
N         7.50508886217903    2.76702609456226    5.73877919190427
O         5.20611172595589    3.25968583249306    4.90557215335824
O         7.10634626453130    4.68244968055043    3.98576884684840
P         6.70256439172852    3.10647459060566    4.30908409447574
Rh        7.08930372009054    1.80218522466535    2.49568923776555
H         6.28872748265177    4.17370952243871    1.52838289898950
H         8.44021083500929   -0.43270334336355    1.85456149109819
H         8.60848617716344    3.97971267500145    2.10224402037761
H         6.24502426299230   -0.21676911609557    0.94601786966984

