123
CSD_code = CUDLAP | q = 0 | S = 0 | Stoichiometry = C51H64ClNO4PRh | MND = 6
C         0.23388766161563    9.60431328222214   -1.44323382518344
C         0.91731728238499    8.20956311507101   -1.36064447317292
H         1.98453678290742    8.35784182767587   -1.14514468886711
C         0.26931574874524    7.37303742855017   -0.25460378747370
H        -0.71947864616431    7.78256251797136   -0.01001081501388
C         1.15173440235575    7.39428950022194    1.02027904652054
C         0.31471428675051    6.14225928989122   -2.20712349546117
C        -1.53565888800651   10.39696310975952    2.20910338476260
H        -2.09712593162722    9.53750817275118    1.83377759268927
H        -1.66233237664300   11.23993538098928    1.52354782347117
C         0.39466070966891   10.54763404807024    3.60957506615197
H         1.34653794647206   11.07792971497651    3.45448041374318
H         0.57006258064189    9.70386520675006    4.28555224870942
C         0.39148380665408    7.05609275305713    2.28438045192189
C        -0.88281623879063    6.51064109945152    2.28235213117642
H        -1.37499868958489    6.27865177855198    1.35050614013814
C        -1.53291180667414    6.23189785284300    3.47751380864420
C        -0.88463417739583    6.49085313793133    4.67597008046286
H        -1.38936529214421    6.28106628824182    5.60921781810746
C         0.40600801154456    7.00215603006581    4.69854704217035
C         1.03580811794034    7.27597074523558    3.49500697456750
H         2.03935185184162    7.67600737736829    3.48615114948692
C        -2.91516844227440    5.64964322406770    3.48150139589206
H        -2.89532739108343    4.63363250712037    3.87562014373309
H        -3.32866222684043    5.61996613222639    2.47669014615623
H        -3.57656240078525    6.23808461389648    4.11580577280902
C         1.09581913962766    7.24753852314067    6.00757313267615
H         0.49875990182708    7.90679452051252    6.63670303575714
H         2.07174219262317    7.70095164476103    5.85399278087729
H         1.23067542140859    6.30940917862022    6.54515290345000
C         2.29053015629974    6.40453790357767    0.83896551992882
C         2.03885498887883    5.05081875860217    1.01193291043219
H         1.05325574592190    4.72764492708599    1.30790424040026
C         3.03549086905577    4.11081640086635    0.79107314380121
C         4.57129280941971    5.89378163626643    0.24138827576343
C         3.55789927021118    6.81709867478299    0.45541457361701
H         3.76518098960570    7.86866227025618    0.33234271393400
C         1.13195567480492   10.65764274456803   -2.05589046408501
C         2.17486041318348   10.33817741470978   -2.91463848535173
H         2.39525084377442    9.30485520372808   -3.13864509084442
C         2.92122728004628   11.34224723875712   -3.51738974383295
C         2.60210229690576   12.66936311779827   -3.26349265185213
H         3.16504585237574   13.45109174525038   -3.75719235008360
C         1.55924862750338   13.01013048446432   -2.41259633649380
C         0.83283731661684   11.99191471697107   -1.80638338626381
H        -0.01724063019333   12.23868783473166   -1.18821218296720
C         4.03374252270412   10.99864056815714   -4.46340037894952
H         4.41471966340638    9.99869801072154   -4.26982582028089
H         4.85115749217768   11.71212917543775   -4.37870817916653
H         3.67124551667982   11.02827735546732   -5.49159167675672
C         1.16961785861439   14.43873388840646   -2.18718488047001
H         0.37905042651665   14.71841298919905   -2.88454436133038
H         2.01188298504541   15.10933586791362   -2.34484963074440
H         0.78493951129088   14.56856696174808   -1.17811457895060
C        -1.03965494103014    9.49249604060951   -2.26440213740885
C        -2.28391764680895    9.43595056371813   -1.65408137709920
H        -2.35839994796175    9.52885496109376   -0.58187460638880
C        -3.43773577652152    9.27681104076286   -2.40912178151993
C        -3.32945522749942    9.16805232862136   -3.78845533722913
H        -4.22411084506230    9.03579205834933   -4.38127140879897
C        -2.09418570342832    9.22827971653560   -4.41697299800885
C        -0.95279531505693    9.39631446275908   -3.64590612981817
H         0.01269569339079    9.43983648932346   -4.12395962963902
C        -4.78223243613898    9.23609863867046   -1.74649136439946
H        -5.26207509752737   10.21232071263471   -1.82066765598024
H        -4.69019719458820    8.98478208454565   -0.69266192245725
H        -5.43040052301699    8.50766305555304   -2.22979637550022
C        -1.98531145721003    9.13231436372601   -5.90889212408804
H        -1.91516089413986   10.13074685690752   -6.34134355783226
H        -2.85664461480650    8.63931185468566   -6.33333183443256
H        -1.09156612572927    8.58168578150842   -6.19325212547602
C         4.29637423170869    4.54331055979486    0.40640434351499
H         5.07991722919748    3.81847618797445    0.23259151614881
C         2.75135486127598    2.65210241040721    0.98749293389687
H         3.43807264560975    2.03931218556014    0.40823531196103
H         1.73099706397890    2.41810866261998    0.69335849231491
H         2.86612628532392    2.38916772248845    2.03947599234485
C        -1.95764688899463   10.78911808564304    3.62043991666338
H        -2.82466244600872   11.44643056860637    3.62020083086420
H        -2.18223489275584    9.89470175390222    4.20454192171259
C        -0.69817646982080   11.46081885789727    4.15472191778518
H        -0.67592854771461   11.53474315099713    5.24040371155778
H        -0.59752232143180   12.45511332232756    3.71945566580201
C        -1.01145925752808    5.90460985256058   -2.93738800672248
H        -1.73672906021879    6.65349483470443   -2.62976881884511
H        -1.38651317901915    4.91514006936227   -2.69464523377970
H        -0.85399731805912    5.98929381413563   -4.00785764656937
C         1.36164261760606    5.09401719122321   -2.59512258844518
H         1.55031442561497    5.14798957303371   -3.66271080903829
H         0.99835575330547    4.10600730649498   -2.33157463141670
H         2.28315574656485    5.28679338648015   -2.05168880574697
C         5.93821619119117    6.34307110111263   -0.18194665659275
H         6.12722988232251    6.05309749399728   -1.21577528272458
H         6.70275757774770    5.87767686185329    0.43786215399178
H         6.03312189080578    7.42339046577639   -0.10442646207338
C         4.15335715758313   10.91803696077962    0.17301428920353
H         3.81178249572879   10.14292110418544   -0.51261690679220
C         4.07595750574751   10.64699114257274    1.53755566479768
H         3.71536345617213    9.66709134948887    1.84129767595160
C         4.91624686831651   11.31509416931677    2.60242904812681
H         5.93267170209397   10.90605297069919    2.57160834422275
H         4.49299101362742   11.05174790217053    3.57549631182874
C         4.95763922662658   12.84855022323476    2.47414706887559
H         5.09048237520770   13.28368890613236    3.46676959965613
H         5.81135843666458   13.15605855252040    1.86804576737321
C         5.16574234122868   11.87215381867630   -0.42465997339542
H         5.42292680780982   11.52890872192769   -1.42856923036541
H         6.07847177861375   11.83751593651960    0.17445469475616
C         4.63758870637985   13.31709916547690   -0.51797368443889
H         5.46217497491343   14.02850537194352   -0.39326726353877
H         4.21818263856482   13.47251356088413   -1.51229765356702
C         3.56147043520999   13.62697027862690    0.49593637974465
H         2.85217937430118   14.38835981889442    0.17502226597243
C         3.69333498265823   13.40152127331215    1.85515095751677
H         3.05117183052686   13.96541358608427    2.53231580125536
Cl        0.55608197098274   13.07722622085080    1.33121172906171
N        -0.12359775691441   10.03352736888246    2.34097555224817
O        -0.13686129897113    9.97250260694075   -0.11354077974443
O         1.71912067848460    8.70533373721925    1.13799333167860
O         0.79833355097294    7.43778335242916   -2.52675829603356
O         0.11436911824461    6.09058209526156   -0.80611769193460
P         0.95149032925585   10.14192001975167    1.05910889871077
Rh        2.43402951459673   11.86780746474967    0.98917011997652

