43
CSD_code = CUDQOJ | q = 0 | S = 0 | Stoichiometry = C20H16N4O2Pd | MND = 4
Pd        1.48779716069981   18.60356121811127   -2.04163339617256
N         0.32429146700051   16.19930656395051   -1.16984848272537
N         1.06425028741974   16.73071181942583   -2.07366014112132
N         2.21703747501567   18.05386291060200   -3.99742582644454
N         2.11506490626862   18.67565919486633   -5.09009555383776
O         2.12190377655530   20.57505952739987   -1.74714051838567
O         3.80413596928199   19.17877787743478   -1.91978207558039
C         0.08322863956481   18.50900804057861   -0.63327483856364
C        -0.58272626034743   19.49013089640734    0.09289199758904
H        -0.36010449043822   20.53423488885322   -0.09569776783815
C        -1.49080400104210   19.13856086250592    1.07755318878519
H        -1.97537454773962   19.90975508630263    1.65917832536013
C        -1.78155469854667   17.79885137615024    1.34072765039048
H        -2.49479451230037   17.55154466393920    2.11324923758817
C        -1.17821001642020   16.79911986475240    0.61709683175525
H        -1.40734115078567   15.75813718449558    0.78381298917806
C        -0.25373755923553   17.14217973690603   -0.38232265705964
C         1.80891365658103   15.97324390565307   -2.93617511176162
C         1.98931237397706   14.58822666148811   -2.84537961759729
H         1.50110553077191   14.05636669721967   -2.04389944779264
C         2.78915571068953   13.94747200668306   -3.76411796122115
H         2.93864855702415   12.88107462500670   -3.69199635217977
C         3.41462736464721   14.66187921159884   -4.78827871586521
H         4.03828192910625   14.13887181246083   -5.49715295859750
C         3.23756115283687   16.02187465591180   -4.90980055948497
H         3.71872013385462   16.58949212784970   -5.69127443155217
C         2.43144894273310   16.69665318949773   -3.98781420713237
C         1.86614920267673   20.03339491754680   -5.02908307932339
C         2.65114953980112   20.91825816975359   -5.77051145047500
H         3.48882935204406   20.53291549940196   -6.33095705579736
C         2.37749984522351   22.27000324871208   -5.73539163836792
H         3.00304365362475   22.95523935253544   -6.28823185133427
C         1.30888068780526   22.75149456398892   -4.99278915346972
H         1.10220753507713   23.81073169867294   -4.96987650702713
C         0.49944710531144   21.87202937160387   -4.29334103049955
H        -0.34664126392024   22.24111659467206   -3.73403223686465
C         0.76925483520244   20.51557058197800   -4.30069357347079
H         0.08224004308239   19.81201983351460   -3.81082683540604
C         3.36090238652657   20.34063517688688   -1.83715551684120
C         4.30611230727374   21.52512015819029   -1.85485360817188
H         5.32251663995384   21.18536566060574   -2.02929224341618
H         4.24836675464716   22.04075968132279   -0.89896505345556
H         3.99820357849438   22.21712888449805   -2.63573876582200

