57
CSD_code = CUDQAT | q = 0 | S = 0 | Stoichiometry = C18H32MoO6 | MND = 6
Mo       12.27743951105413    9.05140500097608    1.95181294032604
O        11.93265215151504    9.57202600345469    3.48248534006170
O        11.38442595794698    9.81992550855476    0.79344823169015
O        13.94660403123975    9.57940234338049    1.71901154511679
O        13.40445893941513    8.27993043694833   -0.42924546014266
H        12.82258551467014    8.94811419849207   -0.81825076756343
O        11.71506593784525    7.35998158125732    1.79433089869768
O        13.73284559200879    7.33458274731243    3.40328089159768
C        14.70756505847608   10.01491333189654    0.63730441696644
C        16.09544357369817   10.46108790146734    1.14450220371804
H        16.60472590299919    9.62270563621480    1.61991092669774
H        16.69851490906304   10.81049327666664    0.30444931077186
C        15.92837332809122   11.57658936987398    2.17785395012821
H        15.33010315398551   11.18838231133202    3.00745573853197
H        16.90868728032648   11.86801663190830    2.56156683333714
C        15.21244874255878   12.77989262657708    1.57713582029233
H        15.08984292646664   13.55494031149065    2.33517256909917
H        15.81240737335743   13.19567790349888    0.76244903565782
C        13.85193809138929   12.35014437707043    1.04027483045839
H        13.33603041761572   13.19910166048536    0.58830930017310
H        13.22336533137974   11.96179707263850    1.85622893379547
C        14.02043944743086   11.24441604901423   -0.00226925042160
H        14.62645274802250   11.61376248206116   -0.83180395636953
H        13.02650922475452   10.96460009919932   -0.36278799444542
C        14.73303765679572    8.78310307667038   -0.34859887766986
C        15.56001488838488    7.63084891146899    0.24758778425085
H        16.60007140459709    7.94277444773177    0.34770986277401
H        15.15266184231754    7.39718664389932    1.23667402152713
C        15.50011694875355    6.40035328215797   -0.65335236311582
H        14.46345355183996    6.07332193833887   -0.74172213679861
H        16.08041056729028    5.59143480808885   -0.20446709295611
C        16.05016362882895    6.74030188078228   -2.03422518193596
H        17.09676815342753    7.04325253856260   -1.94716434030979
H        16.00685263701887    5.86307796362372   -2.68232655068021
C        15.23781255824116    7.87528652127127   -2.64662768771446
H        14.20456941079158    7.54595236535687   -2.76861289547987
H        15.63156428198868    8.13307290422598   -3.63185624864265
C        15.25929064089763    9.11662428295096   -1.75288333569965
H        14.64231476672225    9.89071694479032   -2.21174768947099
H        16.27965015348978    9.49409267333679   -1.66911507183368
C        11.86160153979136    6.21787933484532    2.55612014859113
H        12.45453735270652    5.47787062406152    1.99071912297905
H        10.87579202178042    5.78465566284925    2.79383021013277
C        12.60262700281987    6.59427249162549    3.84630110044402
H        11.94888304913646    7.26707227532597    4.43142886950363
C        13.04623938820323    5.41127047607453    4.70566854353082
H        13.68766345864551    4.75816269840740    4.10946585261018
H        12.17367756740416    4.84202075707378    5.02728485158572
C        13.82402387851482    5.94260231218767    5.91040879635248
H        13.15480322089160    6.53429634847660    6.53855012953944
H        14.20848665744194    5.11469710625618    6.50861742214081
C        14.97327308064812    6.82321705231907    5.42190231781052
H        15.48725256200006    7.28740884089423    6.26383137373262
H        15.69210867723552    6.21054806565042    4.87324693833431
C        14.43322706869583    7.91061588958348    4.49124983438550
H        13.76376545243330    8.59302188117287    5.03410852716300
H        15.24595978495309    8.49169813816830    4.04766747675503

