23
CSD_code = CUDWIH | q = 0 | S = 0 | Stoichiometry = C10H8HgI2N2 | MND = 4
Hg       -3.42507370180213    1.26503927937922    2.26570292687481
I        -3.80156208767869    1.74782500940468   -0.27385095040688
I        -3.90609089801770    1.42936422310320    4.82622057515730
N        -0.90450849485572    1.11086576884401    2.11270622988083
N        -2.55135288707926   -1.10362809867062    2.29876559968902
C        -0.17436333447687    2.16648447195226    1.78388057808273
H        -0.62418733522057    3.13302488138986    1.97271821834802
C         1.09258483682703    2.07197674003240    1.23287979047492
H         1.64464097163386    2.96343750733551    0.98348742769383
C         1.61260962888674    0.80974592385498    0.99824221603405
H         2.58515367018879    0.68799662236185    0.54558956101119
C         0.86169622892978   -0.29708989550627    1.35242067080543
H         1.23152056292326   -1.29186934195767    1.16194716038667
C        -0.39585791454143   -0.11028112328092    1.92342781786034
C        -1.22474481266883   -1.25901498555305    2.33604759907399
C        -0.64107984413196   -2.45074010926153    2.76223604741491
H         0.43149076983519   -2.53851904307504    2.82975707264896
C        -1.45553459421664   -3.50595488411646    3.13295236556905
H        -1.02440858053997   -4.43497401989588    3.47448743643585
C        -2.82954939972413   -3.34567044106273    3.06123833129950
H        -3.50396585704373   -4.14152705098187    3.33224960348859
C        -3.32551746546044   -2.12153145111822    2.64524963269752
H        -4.39279946297513   -1.94965998197840    2.58504408853246

