63
CSD_code = CUFFEO | q = 0 | S = 0 | Stoichiometry = C30H20BF10NZr | MND = 14
Zr        0.47001971356969    2.33102019730204    2.50083597657296
N        -1.77041187713404    4.43740960367123    1.30177182754124
C        -1.86039587366014    3.82459528673893    0.09794843296425
H        -2.80984480274796    3.59388373709948   -0.34294668624701
C        -0.60701957341797    3.57188192576767   -0.39951735091829
H        -0.37406019762553    3.13952057622762   -1.35529449202379
C         0.31479360868608    4.05529752645437    0.55655098785380
H         1.36530311855236    4.22912307740443    0.36118385657092
C        -0.45376881813058    4.58679593117471    1.60468354273851
H        -0.14748144382022    5.25864102299698    2.39584047644446
C        -2.62297918397817    4.96684629443859    3.77465180495912
H        -1.85640707511049    5.72248788201520    3.93115993753086
H        -3.51818316267603    5.28977932695604    4.30641253070831
C        -2.15240104961424    3.65753282756355    4.29416427404037
H        -2.90985616267220    2.88719862143603    4.40370859284812
C        -0.85925338996428    3.31391179082513    4.47194760918065
H        -0.12134203943402    4.11296306686690    4.59518236420825
C        -0.37385103613754    1.93330549472770    4.52954997037556
H        -1.19677510485637    1.20980748268088    4.61272542464308
H         0.37746715134745    1.74512057946347    5.30384282990491
C         1.13252872270271   -0.13464074355122    2.53326001698193
H         1.40487894170226   -0.69342583905867    3.42058519222898
C         2.02449930097935    0.43405575445808    1.60458915978485
H         3.10404044534453    0.39026221335725    1.65821549407801
C         1.27586567519186    0.94187651716816    0.52420490740660
H         1.68747829682754    1.32709618854184   -0.40144285472837
C        -0.08480183992272    0.64397495015883    0.76216825294069
H        -0.89365598988631    0.76434234823357    0.05244644921085
C        -0.17461992507302   -0.01848058936348    2.00642716923412
H        -1.06024967917082   -0.49007459485384    2.41187753337090
C         2.68347611930426    3.28224503654957    2.49966784550672
H         3.20317697000332    2.94466735071293    1.60564986489932
C         2.42070313588130    4.63742653191958    2.80204475287150
H         2.47663530665285    5.46413711646331    2.10903603270168
C         2.18682010588309    4.75242861334043    4.16953860983394
H         1.97476263732181    5.66797954859806    4.69549717930519
C         2.32784913115688    3.49069521813579    4.75072075387929
H         2.25990433717215    3.27780997844509    5.80560411540662
C         2.62054645404286    2.56038482132856    3.74267951475017
H         3.01649994648579    1.56664343888579    3.92504702790634
B        -3.01265283502062    4.80289904166642    2.16520933405426
C        -4.00390396295959    3.50644940354618    2.11833738998442
C        -3.47201849348252    2.22351874103633    2.10408246148811
F        -2.08589780739658    2.04380803423024    2.08060520969713
C        -4.22216042390086    1.06001974865730    2.16225639722957
F        -3.60184649374583   -0.12797675037754    2.15534217681414
C        -5.60543515830974    1.15048160098624    2.25173489583067
F        -6.35646749378931    0.04897436852518    2.30453033783169
C        -6.18750748639923    2.41401156688098    2.31177380604659
F        -7.51164197734509    2.52357491303752    2.43316375348730
C        -5.38909173452633    3.55308642814805    2.26063964867194
F        -6.00298684801705    4.73729088679858    2.37367981856307
C        -3.66491348244423    6.13602447363025    1.47196011316868
C        -4.49832303338367    6.04540636493042    0.35961570333577
F        -4.79174501051408    4.83998410784259   -0.16549201446321
C        -5.05755925201947    7.14559690630680   -0.27846258361581
F        -5.85140105904214    6.97590462092427   -1.34198304275763
C        -4.77735836076546    8.42447088452208    0.18476439926358
F        -5.30145709558864    9.49677772694551   -0.41412952435198
C        -3.92578527497762    8.56484384115571    1.27170105229987
F        -3.61449438660106    9.78502103426093    1.72488512068154
C        -3.38807222545220    7.43577901751939    1.88278123383032
F        -2.54507099808436    7.65972692754493    2.90288538545395

