50
CSD_code = CUFKEV | q = 0 | S = 0 | Stoichiometry = C23H21NO4Pt | MND = 4
Pt        7.31922424781604    2.14004248566874    4.49336010187669
C         8.78516800524052    1.37183684253238    3.39924170157467
C         9.93954914416607    0.72114256437028    3.81104109763677
H        10.05032648931765    0.43512699123785    4.84684313365534
C        10.94771772475390    0.43118287573349    2.90504541588537
H        11.83785285778884   -0.08505637166931    3.23596304736590
C        10.82858575268548    0.80497004985296    1.57350463095721
H        11.62501363488182    0.58260896757671    0.87819785247734
C         9.69469526810768    1.45936585169100    1.13526489455853
H         9.60839745648115    1.74651927977178    0.09755935222690
C         8.67160073878351    1.74079655546426    2.03999519339723
C         7.38712052224802    2.33140859233477    1.69954118582487
C         7.02887753510575    2.80026889367443    0.42808114228525
H         7.76761644513889    2.81573548101889   -0.35558114422818
C         5.76552191052503    3.29002861466948    0.18196981833080
C         4.78665927512633    3.19074251776719    1.21379116194797
C         5.21056556948449    2.67625482644047    2.47313999628293
C         4.24874514654847    2.44026501660009    3.47373574386404
H         4.57484599404265    1.97238015066989    4.39207927774168
C         2.93544367749112    2.76820906123194    3.27387481163848
H         2.20569032811399    2.57798050782273    4.04657508017496
C         2.52904957187998    3.33814714560415    2.06124192669122
H         1.49291037635022    3.60526128987936    1.91784263073294
C         3.43064577885704    3.52982162504854    1.04809839055241
H         3.11249141928073    3.94026283227361    0.10423617726562
C         5.46245686518488    3.88327941900297   -1.14520626989798
C         6.17691680659123    4.04124014239829   -3.37753912924666
H         6.15804685826043    5.13537746274054   -3.31608031163378
H         5.20576922523489    3.70780818295465   -3.76101037585825
C         7.31461170913588    3.55282664223013   -4.25366978818276
H         8.26698616565935    3.89720617342409   -3.85935353780357
H         7.18881856313431    3.93625748900257   -5.26193970514620
H         7.32299770304289    2.46648123451793   -4.28440510754403
N         6.51053963969798    2.36206308380429    2.71990655509890
O         4.54105850064693    4.62234410069973   -1.39869536351210
O         6.36039527297717    3.50898665984597   -2.06562506194246
C         7.97905468070028    2.31175773067807    7.39686794461841
C         6.90548463224284    3.12885739587630    7.73856000133774
H         6.80659124723939    3.41837479990029    8.77324040447711
C         5.96706553640688    3.63253030173875    6.82866048350610
C         8.90879206190562    1.89305643931829    8.51722745080065
H         9.67864478112565    1.23358018245463    8.12518183096737
H         8.34987468535807    1.37713077174603    9.29515441944459
H         9.37771861840084    2.77041283377599    8.95815337254691
C         4.90157632822584    4.55789892797523    7.37820428802951
H         4.24675622124793    4.88204080270194    6.57319345330250
H         5.36515101003534    5.42711462203005    7.83961759587273
H         4.31635981780775    4.04153282759127    8.13630163256627
O         8.28724310381647    1.88159411576861    6.24415354801037
O         5.93007509572830    3.37944501055209    5.60095904947363

