79
CSD_code = CUFLAS | q = 0 | S = 0 | Stoichiometry = C39H34AuN2O2P | MND = 2
Au       13.10519780721433    4.98534698555348   11.78678996815344
C        11.16377697751645    4.81918155164923   11.85979682216912
C         9.96569731569297    4.70561605865350   11.90330295828736
C         8.51911739072161    4.54056154005612   11.88341968297655
H         8.02268433947175    5.50507331512590   12.02212283444214
H         8.20370736441679    3.83182471485316   12.65408114998291
C         8.05195573510245    2.62423314292017   10.45944726791115
C         7.72760196793741    2.10092866879150    9.12753818091599
C         7.46998749862153    2.97292510187234    8.05146205693083
C         7.54559551155814    4.36685558711901    8.24704214725068
C         7.84140754820671    4.91742122581717    9.58357782464357
C         7.70324075546187    0.73707556485535    8.91158442239911
H         7.91818797929672    0.07976835133953    9.74084577531684
C         7.37134480175113    0.21566372386009    7.66810224840653
H         7.32050107075187   -0.85623220340912    7.55624166250365
C         7.05131886012422    1.03932624993059    6.59792011229967
C         7.16351639982945    2.45712088898059    6.76607367049135
C         7.05764471031843    3.36890471107967    5.69829265797163
H         6.93564897592743    2.99150730993536    4.69552003701010
C         7.15658660074661    4.72269468072352    5.90448067857696
H         7.07895316314543    5.40233419348137    5.06868948054482
C         7.36954592861685    5.22942379272282    7.18582074490343
H         7.43281504576675    6.29218811790270    7.36447131186055
C         7.05571999081235   -0.81476183648061    4.99958868639941
H         6.31770248785333   -1.55249647817592    5.35447917616704
H         8.02512215683770   -1.04458753577065    5.44500457818495
C         7.16685343157425   -0.90145291567558    3.47668584140651
H         7.94786292955227   -0.21589945051511    3.14189174456888
H         7.45910000057911   -1.91436850670397    3.19486189085175
C         5.84609206378728   -0.52599189812968    2.80479518061341
H         5.07900523686021   -1.24539527776977    3.11505470121027
C         5.43287640688139    0.86381926859112    3.29052946880902
H         6.15760388968661    1.59854082306621    2.93375940626378
H         4.45314504874042    1.13037843403595    2.89075807299405
C         5.38426841211093    0.88985446731261    4.81539121180550
H         5.08444274857308    1.87086862072946    5.18312064995357
H         4.63123017841662    0.15937573478186    5.15779343055272
C         5.96949819737318   -0.56779904104523    1.28528092119578
H         6.72618944547607    0.13611848620552    0.94547436209499
H         5.02305260604173   -0.30601686141214    0.81796003215887
H         6.25370213069418   -1.56320479323727    0.95216626129095
N         8.09680389318235    4.00295818308569   10.58419804318975
N         6.67975801172069    0.53347993407853    5.36452100509516
O         8.25972663104471    1.89996896811295   11.41473612072942
O         7.85328703844123    6.11407773395458    9.80103163469932
C        16.04866028870344    6.80643248618679   11.77799016638084
C        16.85242963229182    7.38106453694455   10.80105648608984
H        17.13578738853244    6.81142251327953    9.92666194768314
C        17.28951599517556    8.68535819563154   10.95564240697388
H        17.91754769095815    9.13158115272366   10.19835349902969
C        16.92454005761287    9.41764112408639   12.07297693594178
H        17.26951688055462   10.43454135148685   12.18689936660677
C        16.11072671682853    8.85053962739313   13.04229337690687
H        15.81899809520133    9.42456417475061   13.90925615619206
C        15.66678544461910    7.55174914626406   12.89236898158465
H        15.02078890696538    7.09852528105836   13.63469579137892
C        16.08660042599450    4.47457658743718   10.14257582905917
C        17.33583581125733    3.86501799613625   10.09352086013345
H        17.92215650029963    3.75842355597388   10.99583160238146
C        17.82118195041247    3.39577975370387    8.88631616068828
H        18.79119643715567    2.92189245898266    8.84712000567487
C        17.06852735592066    3.53063948843056    7.73043402605029
H        17.45333693939419    3.16086794992030    6.79155439879034
C        15.82134897549796    4.13275131786966    7.77802935096048
H        15.23161957897749    4.23255199474653    6.87883548880739
C        15.32790688587968    4.59950214041517    8.98208797418456
H        14.34898806144841    5.06009666422275    9.03651411344445
C        16.26033158957590    4.23676114218180   12.96701612175791
C        15.71936288973336    3.01746315764363   13.36569504574713
H        14.79924361232863    2.67269363337247   12.90982187884959
C        16.34910565194532    2.26484844092154   14.33880551808670
H        15.92770841399044    1.31932186585896   14.64614046163751
C        17.51599539118951    2.73069091953203   14.92363882093786
H        18.00678849833673    2.14645144602773   15.68775991085895
C        18.05174935653210    3.94809660751539   14.53489948248018
H        18.95939906784115    4.31103378407414   14.99501921998393
C        17.42914135020116    4.70454051397095   13.55838079039951
H        17.84629311278090    5.65575948403030   13.25647031915704
P        15.35520836148005    5.13211017445985   11.67093138910796

