55
CSD_code = CUFLUK | q = 0 | S = 0 | Stoichiometry = C30H16Cl4N2O2Pd | MND = 4
Pd        2.63827758312630    0.32890602712226    0.37460004149414
Cl        4.78497533624747    4.73251335793040    0.96799324404574
Cl        6.64209845842471    4.74097053425405    3.48249369681978
Cl        6.91245397370903    2.17849469475929    5.21936453597608
Cl        5.32955713602398   -0.40338709549131    4.44756466302467
O         3.67515644526732   -0.06529696610869    2.00853378607169
O         3.44018672515958    2.12651807686400    0.52764036971039
N         1.60791657269820    0.69670961181945   -1.24245986385838
N         1.83109314358577   -1.44147625706613    0.20043917817822
C         4.35669813502660    1.00122629641263    2.37278711902322
C         4.23164612331957    2.17456994902725    1.57917648379039
C         4.94467145484605    3.32072414169382    1.93836128461565
C         5.76914680462478    3.32139218177540    3.05768133537367
C         5.89081454584541    2.17256064357365    3.83592298732085
C         5.18836101956162    1.02231277600530    3.49491305783202
C         1.52469001061692    1.82414499557680   -1.94470951854516
C         0.76325299083752    1.91937090907970   -3.09930595477119
C         0.04999039505506    0.82570948688769   -3.58766860258856
C         0.09255898705808   -0.36880956528009   -2.83461343690946
C         0.89157047959529   -0.37738343973795   -1.67300924917246
C         0.99916238611309   -1.54254503428779   -0.87208621283949
C         0.27745240169058   -2.71011742258499   -1.19330534453094
C         0.43420232318282   -3.82810889136866   -0.34421326259934
C         1.32559488902079   -3.70713339571770    0.72039297023004
C         1.99373892216962   -2.51737152777797    0.96663329144549
C        -0.53395262302858   -2.67361994377433   -2.36592823531051
C        -0.62606085822220   -1.56251626728089   -3.14039704430706
C        -0.69484196629715    0.94189427631282   -4.84684496831276
C        -1.56983537514611    2.00839663390550   -5.04277928285423
C        -2.26040752037012    2.13655736848010   -6.23326838392338
C        -2.07570820911230    1.21206114168494   -7.24823695499445
C        -1.19486225653429    0.15844819988872   -7.06835446527135
C        -0.50962500551246    0.01968893810919   -5.87548413622498
C        -0.30790899888919   -5.07882642619739   -0.54318005673268
C        -1.69657050213265   -5.07254926040239   -0.66202703541483
C        -2.38831641200841   -6.25853153729807   -0.82468299821150
C        -1.70496453357740   -7.46228556390535   -0.87806477197223
C        -0.32535493811428   -7.47739132770661   -0.75382256069416
C         0.36997442496748   -6.29546583627794   -0.57885664080833
H         2.09747664737584    2.66496287481662   -1.56939336371934
H         0.74779216675962    2.84924537289353   -3.64582989858919
H         2.67236196567902   -2.40860152426119    1.80532650048619
H         1.47643876309681   -4.54446066738505    1.38351430787052
H        -1.07646020581728   -3.56571879273031   -2.63810031414423
H        -1.26479703551195   -1.56453039615766   -4.01000220272042
H        -1.72125044101891    2.72356435122481   -4.24763667518692
H        -2.94281699198591    2.96172367622377   -6.37105316681199
H        -2.61245764245173    1.31616093616101   -8.17894199318266
H        -1.03768322351675   -0.55677931640615   -7.86194139771434
H         0.19828918236678   -0.78653637053518   -5.74844993531689
H        -2.23324784816956   -4.13722971897305   -0.59411046737652
H        -3.46489048436905   -6.24332215776337   -0.90756153241491
H        -2.24697494772047   -8.38637654021279   -1.01078276333819
H         0.21051737419867   -8.41398595555684   -0.79098561516428
H         1.44657025225641   -6.30617025423632   -0.49145054678025

