46
CSD_code = CUFPUO | q = 0 | S = 0 | Stoichiometry = C19H20MnNO2S3 | MND = 8
Mn       -0.92772499127484    2.73691680072510    1.15084746528435
S         0.95139119716263    1.56747070012875    1.69678935559440
O        -0.26449956997563    5.49800348481069    1.84445447821163
O        -0.16538128799554    3.26495565647685   -1.62252347330521
C        -0.47073755953239    4.39079556239539    1.57461828453636
C        -0.43720208798173    3.06936145928061   -0.52036961085565
C        -2.69058443918364    2.84397760009560    2.40234303526517
C        -3.08265999113655    2.87654938078536    1.03232225215030
C        -2.65615240296237    1.64781005790073    0.45046794114275
C        -2.00095952678487    0.89195638516626    1.43671386625260
C        -2.01452697829836    1.63151079398911    2.64246098008237
C        -4.02878315224236    3.86046039225611    0.41249695473347
S         2.54839099688140    3.71476298949345    0.47210011465765
C         2.46015079398396    2.17877879049297    1.29471418372429
C         3.65250063501634    1.41812920195941    1.58169340545247
C         3.67919873428324    0.52453229565991    2.65953989978111
C         4.80867169404028   -0.22260189369717    2.92106605887643
C         5.93255768576701   -0.09696155138883    2.11777989745962
C         5.91594224677953    0.77858070193054    1.04275827072144
C         4.79160031480369    1.53228306303231    0.77446848409620
S         4.01002533990634    7.23891544894259    1.45027502388463
C         3.97865067885783    4.56321980287168    1.30451596602134
C         3.50713604998974    5.77960177700082    2.03773846038112
C         2.36445595504991    4.37899773331173    3.69661988762925
C         2.13626371787188    6.79568159605199    3.75476628674520
N         2.74436616580723    5.64828876883398    3.12545076724683
H        -2.98980424725018    3.56359886355156    3.15346956531236
H        -2.91620009399826    1.30507275931952   -0.54181376991253
H        -1.65493507570676   -0.12712933547622    1.32793612659772
H        -1.69685329732864    1.26472151455409    3.60959746516741
H        -3.89606455725878    4.85319102376331    0.83933461311082
H        -5.05759472321852    3.54209007444560    0.59789147585886
H        -3.87914527964459    3.92121942198233   -0.66406104385518
H         2.80334159361504    0.43922310715238    3.28412444835563
H         4.81673552837662   -0.90536818045197    3.75744299891447
H         6.81532815095016   -0.68200756096954    2.32605645062787
H         6.78312144876073    0.86971028911782    0.40626438673615
H         4.76833252682851    2.19081389958392   -0.08061536623531
H         4.65428707707442    4.87793703341312    0.51176592167283
H         4.47180445689189    3.83226441881917    1.94339733307073
H         3.16417376208933    3.64538944456227    3.60851774944789
H         1.46386466908323    3.97739380777096    3.21650780379972
H         2.15206410839061    4.52855488812689    4.75455038421062
H         2.49376804734077    6.89566270122138    4.78153596802584
H         1.05218814684000    6.67561587948952    3.75661904825017
H         2.39689753933541    7.69206895152312    3.19717020507305

