54
CSD_code = CUFQID | q = 0 | S = 0 | Stoichiometry = C24H24Cl2NOPPd | MND = 4
Pd        0.96901619623666    7.47857180203288    4.90616628202162
Cl        2.17762087726756    7.55667395371484    6.83674072709274
Cl       -0.82777264350057    8.31730534072861    5.92987851110093
P         0.02616353771734    8.01224761193681    2.93892325996499
N         2.41230617653116    6.42838808540531    3.97467744485050
O         3.52585576589640    5.26223686800944    2.44407023488478
C         2.90528057654266    5.27663438545439    4.71492806769115
H         3.54397629080225    5.64390451978257    5.52756701729624
C         3.71197567641893    4.51262364388194    3.64278233803613
H         4.78085304864111    4.47500225466011    3.86654055661166
H         3.34708661163258    3.49812190038365    3.46742598940438
C         2.75335363472907    6.32475712301930    2.74490902472174
C         2.42402155796829    7.21043561834549    1.63201734956565
C         3.31036851813473    7.24151160663129    0.55151802225348
H         4.20402229457509    6.63869250611823    0.59650184129172
C         3.05653087608446    8.03390304590368   -0.54909294661765
H         3.75646108625595    8.05343941756117   -1.37042450656774
C         1.90270501299381    8.80245408657052   -0.59680888120573
H         1.69790874863361    9.42319771788819   -1.45595554950557
C         1.01260771524057    8.76943189893597    0.45952554706402
H         0.10894696044165    9.36180165577564    0.42386590894857
C         1.25351539065530    7.98084116817145    1.58159030713026
C        -0.22959920883864    9.81031344511188    3.08105835282512
C         0.70587881162015   10.49488865798645    3.85851735983067
H         1.51658538452682    9.93991118898735    4.35134744193347
C         0.59213469870240   11.86076863045089    4.03028194405266
H         1.30908642868285   12.38986608623991    4.63993770178291
C        -0.45378752924307   12.54894633208578    3.43319802045972
H        -0.54877286776075   13.61480574692946    3.57779186791325
C        -1.38368516213145   11.87107749402518    2.66416476430493
H        -2.20335053816215   12.40698892505699    2.20845589872372
C        -1.27488554364875   10.50246874759914    2.48312987565806
H        -2.01253897704243    9.97167035891695    1.89657208966305
C        -1.49816497162194    7.37194975019713    2.19892202412540
C        -1.54530184033199    6.71515794786848    0.97400575242903
H        -0.64675615834849    6.60028873887529    0.38310810545605
C        -2.75030122772209    6.21298292351069    0.51371015612007
H        -2.78976778164237    5.70936849113365   -0.44115445566885
C        -3.90047336406020    6.35124238561373    1.27324043939288
H        -4.83700913306407    5.95759383861891    0.90692211308921
C        -3.84903412025767    6.98379098127923    2.50667758818087
H        -4.74326526853975    7.07912154362445    3.10404163231588
C        -2.65135567696928    7.48801013832194    2.97581505984453
H        -2.58415296833343    7.96655378795168    3.94512383110643
C         1.73787581678590    4.48846079838244    5.35918386543350
H         1.30416606826479    5.14621227789911    6.13354823361341
C         0.63219876473934    4.15194598561323    4.35292249241005
H        -0.09053409770961    3.48585899876894    4.81783880306343
H         1.02865908924433    3.65760838731350    3.46668974712639
H         0.09671927496333    5.06192150565448    4.04362792210203
C         2.26699529453982    3.23597988533955    6.05231554245095
H         3.07284359480267    3.49281594423885    6.73496253745917
H         2.63759659335055    2.50594390853862    5.33567608165499
H         1.47019270532047    2.77110995699716    6.62692066511013

