55
CSD_code = CUFRAY | q = 0 | S = 0 | Stoichiometry = C17H33MoNOP2 | MND = 9
Mo       -0.82047381820890    3.59825231319732    6.04490771385041
P         1.26052469049228    3.78190614040696    7.15636212019044
P        -0.06272857643642    5.65909896328600    5.18343070677296
N         1.81980536035013    6.46157307743481    6.95968588767195
C         2.93754171774447    3.45619262133039    6.44833095616685
H         3.28599146472355    4.41126755602741    6.03953690994689
H         3.60393768801559    3.17375039101763    7.27109803662755
C         2.92622905219564    2.38562923473373    5.36768906072159
H         2.66969159104237    1.41598313808635    5.78568801424684
H         3.90229559597778    2.31238741158880    4.89032146814626
H         2.17704554188374    2.62400141468359    4.61326893959244
C         1.33502377058437    2.78333937363024    8.70954620268345
H         2.19614246122779    3.11449419466314    9.30182847230820
H         0.42595504156535    3.02207952193865    9.26921982993343
C         1.40700001921701    1.28288411822561    8.47381587606996
H         0.63709205111720    0.98015901835804    7.76697562793534
H         1.25749407162942    0.74427409679701    9.40841478068827
H         2.37607949773668    1.00065454957675    8.06993976446010
C         1.63301711224450    5.41367031574542    7.94137726413783
H         0.82266122940109    5.65489602780493    8.65834420752882
H         2.56424138473004    5.30055342393833    8.50900330616633
C         0.55916564821343    6.90454032467135    6.39881503053552
H         0.71314975837798    7.85560024882302    5.87837564144624
H        -0.20853748810095    7.06912183907795    7.18066775391268
C        -1.33331055912479    6.70756492397341    4.34943247398465
H        -2.15270312208118    6.84306689829806    5.06162880655658
H        -0.91509878337858    7.69684451621902    4.13671019745911
C        -1.84809999011396    6.05438573303927    3.07391793755294
H        -1.11752737924390    6.13754924007667    2.27290579835289
H        -2.77027017689557    6.52928829044343    2.74215645363371
H        -2.04172457055506    4.99493661558044    3.24447866097529
C         1.29386387443957    5.65912263154446    3.94390540650589
H         2.07482119806698    5.01812351067972    4.35991069185781
H         0.87922383638206    5.13972242349472    3.07408187090019
C         1.88661120170740    7.00059190649880    3.52928565025631
H         1.12259557173661    7.68990934296747    3.17644484446485
H         2.59411541545350    6.84408396980341    2.71649948480790
H         2.42312074453916    7.45855410673731    4.35593575191225
C         2.56353898510402    7.57399390971607    7.52454030625118
H         2.04233931039075    8.04781148695668    8.37037659616674
H         2.72953626868961    8.32790306210751    6.75537353672970
H         3.53457251134314    7.21942983654405    7.86887779224771
C        -2.06059387074173    3.87774762222979    8.01387990014987
H        -1.71511502768091    4.07095548934799    9.02207378044275
C        -2.35700006436615    2.61565105044888    7.47021553058823
H        -2.29352721113795    1.67184860103774    7.99787102692563
C        -2.95989858830627    2.80676021786889    6.19729767474456
H        -3.44992083507590    2.03741767662185    5.61415569356723
C        -3.01158676250876    4.19521609667594    5.95225367274461
H        -3.57881627481202    4.67482090001092    5.16550818704178
C        -2.43688247804667    4.85178823848757    7.07577666559068
H        -2.47292750584562    5.91841876066776    7.26683203728765
C        -0.36166222494297    3.12033308240365    4.24968461183531
O        -0.18435750948083    2.78138529021467    3.15921956137077
H        -0.25036084923793    2.12226525426106    6.12962582535593

