71
CSD_code = CUFTEE | q = 0 | S = 0 | Stoichiometry = C31H36ClN2Rh | MND = 8
Rh        2.50349030718213   12.48610848599188    7.56100473707055
Cl        2.14497483159382   13.46484582453109    9.63153423209368
N         0.45469746097441   12.40727324678065    7.32262910275783
N         1.60465487270649   14.19260444585220    6.83693291438406
C         0.34863879417964   13.69021109747719    7.00366201940955
C        -0.78825513105901   14.51549836659999    6.90094489555490
H        -1.76703359457642   14.09596659395663    7.06968607429943
C        -0.58797018527931   15.84411575882063    6.62949129124618
H        -1.43029145673990   16.51621303686611    6.54972012252824
C         0.70751764086216   16.33910395194549    6.45265970899130
H         0.87527394190116   17.37763800287447    6.21515662286856
C         1.79007529915684   15.48714384073818    6.57840232222149
C         3.16873149659941   15.96382694394916    6.30610443502038
C         3.96423946763895   16.49179467141937    7.32348348997089
C         5.24328842359200   16.93234328662508    7.00607849151425
H         5.87249132914110   17.33531273522149    7.78681753782743
C         5.71348766526852   16.87140191856665    5.70716903199060
H         6.70787107564711   17.22437828585083    5.47492115533246
C         4.90916473207962   16.36323159146050    4.70271486883009
H         5.27557789126064   16.32131146564122    3.68685998349439
C         3.63343006332673   15.89964183430312    4.99094193398663
C         3.44051167159478   16.59272883783079    8.71892160332509
H         2.53979912466879   17.20509539930183    8.74224302382488
H         4.18141140055390   17.03300230198308    9.38135670413572
H         3.16940887828653   15.60815678319664    9.09977622462951
C         2.75547890250416   15.34288474311423    3.90867173508446
H         2.33790045613734   14.38251980467567    4.20929352096798
H         3.31398299795080   15.21589214114016    2.98380075433778
H         1.91941301348500   16.01537782048181    3.71646161949422
C        -0.52940259783428   11.43633222549114    7.23239934360531
C        -1.18427839083744   11.21350122861779    6.00744479638796
C        -2.14332302916740   10.21506327972905    5.93029952701690
H        -2.65499478345985   10.05022159226437    4.99231563139573
C        -2.44077297062606    9.42390119771857    7.02462472668048
H        -3.18766282076150    8.64803233392959    6.94500898584537
C        -1.76783350965441    9.62306048667320    8.21757236667149
H        -1.99176279997848    8.99928763769306    9.07125656467001
C        -0.81372229997772   10.61899957118366    8.33988269179372
C        -0.84231912451483   12.02209911916333    4.79112455061184
H        -1.10296915201725   11.47447374129663    3.88778051433269
H         0.22228710000341   12.25447957284219    4.77227142238910
H        -1.38514944502932   12.96813506708099    4.78410788035441
C        -0.09364673870690   10.84550306547048    9.62899134363620
H        -0.32374510949983   10.06443456466386   10.34912451979053
H        -0.37183201149520   11.80967783429967   10.05310139062465
H         0.98391969995985   10.87739107404173    9.46089825851798
C         4.42957689002255   12.17802151315753    6.44442019852870
C         3.45033297420058   11.20418075739540    6.05241562160327
C         3.12524693164458   10.41435326007908    7.21098735854458
C         3.83693270737919   10.95023035997914    8.32144260123049
C         4.63422904581193   12.05820938946932    7.84605093931918
C         5.23724606135614   13.02469052839425    5.51721889328408
H         6.15041696776463   12.48429493263654    5.25837099256260
H         5.51924504282557   13.96674950325152    5.97998460115955
H         4.69808474888034   13.23843996691148    4.59901244275328
C         3.07322760528938   10.85324493351687    4.64732015582761
H         3.06485807736323   11.73338626465526    4.00765229635563
H         2.09123530175638   10.38659390455597    4.61357438035139
H         3.80003463580387   10.14695292819104    4.24005321474549
C         2.29333962334200    9.17060655749709    7.17479283672628
H         2.81517999812495    8.40783527164213    6.59465831442215
H         1.32635810116750    9.35123955686200    6.70609619438155
H         2.11574034568716    8.78355493803168    8.17437849492227
C         3.94130407238998   10.38735348969212    9.70446164897121
H         3.25681757764578    9.55534476706648    9.84872885754998
H         3.71847839790380   11.15185240365937   10.44798995861831
H         4.95965769309262   10.03518014423097    9.87475321226111
C         5.64888117274240   12.78809935377526    8.66721000210363
H         6.54628579135122   12.17524645439794    8.77298563272208
H         5.25640807182893   12.99614344037395    9.66036218601204
H         5.92422877758607   13.73047857122246    8.19973429352700

