83
CSD_code = CUFTAA | q = 0 | S = 0 | Stoichiometry = C35H44ClN2Rh | MND = 8
Rh        3.36165597829507    6.37727957714685    3.35832697641644
Cl        5.54504044695247    6.09659896660466    2.60999863067552
N         4.24685356387504    7.71893368099920    4.65544411493571
N         3.91828011406471    5.63311108493992    5.20236817020286
C         4.56828965427629    6.73814386336625    5.54555890238564
C         5.51114733031041    6.95972119616418    6.56817681185320
H         5.77947202055527    6.14949508727837    7.22774147298609
C         6.08998536597989    8.20019089538384    6.64283700843354
H         6.82597134366389    8.41175991456007    7.40526072831351
C         5.73621424626667    9.19875277465618    5.73014404251736
H         6.16603730265750   10.18556533567979    5.79676339007458
C         4.82403919013142    8.91872112757212    4.72927095060566
C         3.70527846868952    4.52812368001478    6.02329644803654
C         2.92567844826926    4.67730644325029    7.18635499417815
C         2.77904235019141    3.58933859139873    8.03411114659403
H         2.21221651314984    3.69751876509673    8.94677287171461
C         3.33914022381012    2.36441074615381    7.72795744311522
H         3.22000905081493    1.53039465050708    8.40406665564891
C         4.03529939691724    2.20394202521467    6.54388767695227
H         4.44809625910436    1.23702020003104    6.30277179791633
C         4.22301880165712    3.26800341650494    5.67689476997268
C         2.21390498581285    5.97444011984151    7.50337395748330
H         2.29104061264336    6.63139923187690    6.62943324848118
C         2.84441802589059    6.68903908158545    8.70017206635179
H         2.82776337438557    6.04749947884848    9.57845930275562
H         2.29231445710827    7.59929895121560    8.92649391322918
H         3.87576128767355    6.95772911261849    8.48742771179696
C         0.72622737744767    5.72571261900277    7.77702887260453
H         0.28832362722506    5.09418233527101    7.00602734110995
H         0.18751038733792    6.67126351799854    7.80174699964973
H         0.58228165678022    5.23296840985103    8.73507408162534
C         5.00932670040637    3.11441898650866    4.39949500232967
H         4.62927316117700    3.85316893158322    3.68358067081973
C         4.87643728944993    1.73046679111710    3.76573362000167
H         5.43252131355767    0.98281847030308    4.32690242875434
H         5.27812241975249    1.75349175182703    2.75504017966044
H         3.83345940920558    1.42098434068945    3.71776486613443
C         6.48121624964327    3.43986947533017    4.66713666149689
H         6.58087010300682    4.45987863285503    5.02924365286459
H         7.05531938585832    3.35202586555022    3.74838384523851
H         6.89333114313948    2.75973991330569    5.41101079075335
C         4.37394228073168    9.97092540744162    3.78536728604158
C         5.10672576334269   10.26570647787112    2.63537949585885
C         4.64770582134112   11.27231516855972    1.79465650893068
H         5.20189855347749   11.50462731420243    0.89641284423302
C         3.50068728097545   11.98246479370825    2.09782948673652
H         3.16076385895004   12.76772113740301    1.43818503957584
C         2.78876659062368   11.69007509599080    3.24747392919480
H         1.89500378888486   12.24961012599397    3.48513902127782
C         3.21187178813326   10.67912507617971    4.09830993522005
C         6.36071337609467    9.51495967175532    2.32321349319499
H         7.09600158495944    9.65764649502586    3.11420344096817
H         6.78974982549514    9.84960951985519    1.38213719676265
H         6.16032473301602    8.44562197929251    2.25861678191139
C         2.44532714132945   10.35007659669568    5.34563671294398
H         1.51219940731235   10.90804829269261    5.38619332771892
H         3.03493027291113   10.59719689349337    6.22858812349338
H         2.22697734186932    9.28343857229968    5.38862325178062
C         2.42630332229236    5.19314938616255    1.82078453325299
C         2.55348533173147    6.54143736646199    1.31677593596911
C         1.77576100223579    7.39587668483422    2.13909841715832
C         1.18109185446166    6.59632582318239    3.17962538655895
C         1.55158054500122    5.22901617417349    2.94734121142487
C         2.93857245397717    3.98291967988000    1.10431492583787
H         2.84807213195495    3.09078997232342    1.71799312632930
H         3.98446381741161    4.11407110960378    0.83232345499554
H         2.36482173971422    3.83515400394042    0.18754237457964
C         3.25381258818115    6.90680703481922    0.04811453324499
H         2.70442931333542    6.49966485149532   -0.80241351971107
H         4.26026646319833    6.49149996611786    0.03463324158073
H         3.32384435406698    7.98568726633640   -0.06231553715786
C         1.46606039118575    8.82956717365440    1.85338059491059
H         2.33833319571786    9.35845020659916    1.47664538060140
H         1.11386178436577    9.34482538595421    2.74199195562973
H         0.68164593785326    8.87767254536913    1.09509424353201
C         0.11661684089460    7.05565568224689    4.12487610750266
H        -0.85917629549394    6.96661076467536    3.64235292760354
H         0.25996167724078    8.09622052275394    4.40661327486383
H         0.10510426171098    6.45028853900144    5.02706698700766
C         1.02187196977365    4.04805445802730    3.69706305446559
H         0.05342661316997    3.76088164731226    3.28329226415917
H         0.89019609180992    4.27762357746541    4.75223247893036
H         1.69631416760706    3.19875351946756    3.62097255419787

