76
CSD_code = CUFXAD | q = 0 | S = 0 | Stoichiometry = C22H47PSi5Zr | MND = 13
Zr        9.98015690224175   13.64308326745622   13.29329511595598
P         9.12371922904492   15.69003266399650   11.01406747634342
Si        8.20545078317580   10.14739034798206   16.01996293486052
Si        9.45843615468443   11.23106170829809   14.35835804085271
Si        8.03893861471213   12.44086468886950   11.89370792104385
Si        8.32354587131914   10.65034167307320   10.35577887436432
Si        5.69074060203468   12.41903825278371   12.27710131728977
C        10.42390280865044   15.14303126471422   15.33069641287245
H        11.39273744227305   15.36178240934252   15.76348856607814
C         9.77212093916676   15.89612737364597   14.33154745669689
H        10.16132763980424   16.79238983862086   13.86020146789431
C         8.45725066563545   15.39472681874539   14.20210656682634
H         7.65791817028352   15.84233758679115   13.62682678574016
C         8.30544766111333   14.33246619407477   15.11481092339314
H         7.38634187972172   13.80485981877177   15.32464425461385
C         9.51928299025976   14.18261729372447   15.81464818052773
H         9.68737342865776   13.52757392171372   16.65993580538595
C        12.44200689183298   14.40275994019555   13.16985206167999
H        12.89597006481159   15.20979378134022   13.73186151205062
C        11.93076223136482   14.51001531516336   11.86379775773314
H        11.95454605464120   15.40821765024029   11.25937420689368
C        12.43566280335030   13.04257001667783   13.53295553081940
H        12.86327461774323   12.62170981887428   14.43654008399798
C        11.93974153822406   12.30417035412219   12.43618101059269
H        11.92812656018536   11.22626945171685   12.35604171723299
C        11.61311441672013   13.21122775165159   11.40916959942441
H        11.31926473842981   12.94301751825459   10.40296126959448
C         9.49478688107458   15.01525347352776    9.33121218303191
H         9.04951407384684   15.64220135676225    8.55975429438928
H         9.08541770143480   14.00853637544003    9.26125310798183
H        10.57015115608503   14.97275694942774    9.17338977576516
C         9.68305258731680   17.44005436648696   10.71293855966292
H        10.77024596985378   17.48411948765478   10.67862626050623
H         9.33970945385813   18.06748759818364   11.53432469869755
H         9.28199679829359   17.82816191554987    9.77758410657778
C         7.31849779559640   15.99649302560247   10.73599662053750
H         7.15609714251920   16.47850337739579    9.77296952703894
H         6.92718604353158   16.64391599730494   11.51821736242009
H         6.78544834501065   15.04834375043949   10.76336235455176
C         6.90956107571869   11.29540353803505   16.83863659880999
H         6.34583101546790   10.76884913532410   17.60273050561521
H         6.19475161026922   11.68223892345246   16.11870947800089
H         7.38453881728506   12.14579918761079   17.31746086247341
C         7.28035025012933    8.55216188478398   15.48458501178221
H         7.97477107150078    7.84196281916095   15.04589585423586
H         6.52232863334860    8.76703456146032   14.73813601359518
H         6.78988490876525    8.05902694392815   16.31993621184373
C         9.37517198092270    9.61488918265847   17.45130867296556
H         9.87258579033716   10.47431205928782   17.89242541205563
H        10.14789906867010    8.94049921277374   17.09429008899175
H         8.83887537059277    9.10617702557771   18.24807482655223
C        10.08793147541947    9.90818864872133   10.34933594153337
H        10.34569922674123    9.52066321917919   11.32971488603932
H        10.83620233799639   10.64582947456732   10.08026555394116
H        10.17427726029539    9.08754150004476    9.64256574388781
C         8.02868019652139   11.23453158858397    8.54508731335122
H         7.94973925460460   10.39591483985988    7.85882379750893
H         8.84176078621931   11.86240149603719    8.19150710856871
H         7.11158850629612   11.80931783674927    8.46218347719244
C         7.16810068651211    9.13993645311580   10.60615083344950
H         6.12767285017132    9.41343190102252   10.46363045317843
H         7.27008016711649    8.74406718959660   11.61204070349074
H         7.39219794476754    8.33326476544931    9.91296260919723
C         4.92870046008744   10.90842823857908   13.18134526156860
H         5.29569437530012   10.83829074493036   14.20034152560323
H         5.18569680718404    9.98231620774459   12.67898127241464
H         3.84399516720912   10.96579587157839   13.22754140582525
C         4.75611259728176   12.52640458943559   10.59977404471400
H         4.97278901481162   11.65962157782383    9.98418845380370
H         5.04694834024456   13.40571035178407   10.03218255884821
H         3.67878883351529   12.57032701871583   10.73480755551198
C         5.06130908097568   13.92960633689190   13.27982774020639
H         3.97815097985004   14.00596015707054   13.24152959368451
H         5.46295759447136   14.86481382475917   12.90502824514540
H         5.33939298038633   13.85341173032992   14.32550311638213
H         9.94811783449122    9.97126556876005   13.63454956612228

