37
CSD_code = CUFYIN | q = -1 | S = 0 | Stoichiometry = C15H12MnN2O7(1-) | MND = 6
Mn       -1.07114224469169    6.02299586358327   14.95286593409700
O        -2.35863188450924    6.65293051505416   13.64467657764949
O        -3.16451222099752    8.54150268449829   12.76902937920502
O         0.21793498858284    5.24355630848469   13.78840063046470
O         1.18474169844131    3.30685772532675   13.23895200853108
O        -1.94597608537304    6.69391138287312   16.41877322565704
O        -0.24046400391513    5.43635699992086   16.74975475456515
O        -1.64911596114520    5.79438273342806   18.46101789742484
N        -0.26415962894162    7.78323904816872   14.64192788993538
N        -1.79264584142957    4.14478984464993   14.93503262241913
C        -2.33504203049389    7.90885259487402   13.40813798982140
C        -1.09437003071497    8.58851560395195   13.95320477856357
C        -0.80326339609628    9.91564138120539   13.67757214855221
C         0.39596281944629   10.44085061716146   14.11969428944352
C         1.27493560347203    9.59291045093872   14.77952173946394
C         0.92834590716388    8.26952465571418   15.02037432847864
C         1.88327744363650    7.33053235581937   15.67602332487077
C         0.29409171757501    3.96727030682977   13.75094887899983
C        -0.90480940189955    3.29416132285839   14.39770708172733
C        -1.05412592255340    1.91836368876788   14.42321674723703
C        -2.18203487016625    1.38872285808906   15.02621541699117
C        -3.11530746092376    2.26758488121744   15.54890914736118
C        -2.90292776356759    3.64322510810202   15.48805828624510
C        -3.92679663421221    4.58719802971399   16.02421550645898
C        -1.28606125814092    5.94759932763974   17.30846797651126
H        -1.52999991736025   10.49060359879724   13.12542943824260
H         0.65449560297380   11.47532392945207   13.94441474720650
H         2.23685944788281    9.95390026334481   15.11283191744290
H         2.17622403519312    6.56577300584489   14.95483125492006
H         2.76643317048782    7.85095686882370   16.03832656700206
H         1.39059115595092    6.80652188312522   16.49692391029899
H        -0.28582030533488    1.30967765603565   13.97340756145081
H        -2.33863562154518    0.32075168538966   15.07843313590260
H        -4.01914275989922    1.89832732623335   16.01058910225315
H        -3.65367058878668    4.89306816254199   17.03585452930226
H        -3.95708318972255    5.48779693756254   15.40895650674457
H        -4.90815456838678    4.11752239397387   16.05260276855423

