111
CSD_code = CUGGIV | q = 0 | S = 0 | Stoichiometry = C42H66P2Pd | MND = 4
C         0.31269175809711    3.42493066146629    2.97786323497461
H         0.16585531637002    3.78877700062322    4.00023533349742
H         0.16270080142639    4.26171197514414    2.29223343808353
C        -0.66214472178840    2.26791547221319    2.71791516039157
C        -0.33009033548825    1.12503537480409    3.69341912093158
H        -0.57378148336278    1.49384282617610    4.71027387882147
C        -1.25776424472126   -0.06663960931564    3.40306394377725
C        -0.90143335168425   -1.24762477848914    4.32300104617000
H        -1.31600844477472   -2.18179242614166    3.93415458732064
H        -1.31283443001893   -1.09259637320157    5.32419734013653
C        -0.49323575734967    1.79053312003086    1.27391138646016
H        -0.68957311903779    2.61153324857588    0.57782703520532
H         0.54467472765022    1.45118881332710    1.13592678511323
C        -1.42803943585538    0.62148164768713    0.99464678695547
H        -1.29855187499074    0.28393451553887   -0.04115795371682
C        -1.06074068218672   -0.50788486023521    1.94994670534782
H         0.00216356915712   -0.76594076988358    1.81245265581339
H        -1.66843857539341   -1.39246004905567    1.73626755628106
C        -2.11952446724048    2.70446738830613    2.92045022900301
H        -2.26066866829683    3.06425732485661    3.94334122438033
H        -2.36987661673504    3.52451785613636    2.24030918288239
C        -3.04890093378387    1.51759297912804    2.65579884769737
H        -4.08786499960310    1.83047543486946    2.81750227332616
C        -2.71847503423862    0.36116474797142    3.60097985766026
H        -3.39107995055912   -0.47870102375614    3.40154106737362
H        -2.87388437896904    0.67465016604224    4.63708225404703
C        -2.87761461935862    1.04953961279351    1.21254016026374
H        -3.54871512861984    0.21137234885683    1.00963911978575
H        -3.13356807671277    1.85812397997410    0.52337038494917
C         3.60639667008418    0.04233921791562    3.09041064848393
C         3.62949389577445   -0.38470707407031    1.75801765626294
H         2.69640514767315   -0.39914076638910    1.17869786385096
C         4.79914077776051   -0.77805782214850    1.13014020711070
H         4.78292354714332   -1.10808029984107    0.09851550233346
C         5.99730934219297   -0.74305220087733    1.82428991879317
H         6.91656294997702   -1.04655634672543    1.34186820132068
C         6.00851148032435   -0.30750278642342    3.13709168019593
H         6.94332262015074   -0.26625155653267    3.68231353946828
C         4.83076984149819    0.08167388196134    3.75811501762698
H         4.88404213725892    0.43099764005257    4.78651875680327
C         2.77122080380427    3.10220556215676    1.24108799187004
H         2.51594925613013    2.22747499694494    0.62506737241788
C         4.29733077140958    3.14193634442452    1.33386160370664
H         4.61581424986865    4.03555051558430    1.87510785945824
H         4.65788500798201    2.26020208819815    1.86984622678380
C         4.90149378148315    3.18270831037627   -0.06650063471677
H         4.62111049259831    2.27772416248646   -0.60946171086122
H         5.99086606008567    3.20498539182254    0.00291942262380
C         4.39898957743673    4.41230956958448   -0.81697846864742
H         4.73721576708107    5.31410581545751   -0.30034413598848
H         4.81373787655341    4.43173596617838   -1.82689976294694
C         2.87491308220455    4.40931884463526   -0.88450278810574
H         2.54261639837836    3.54320098026057   -1.46191880799596
H         2.52303956625089    5.30744808982542   -1.39764762128535
C         2.25919377058090    4.34318434594081    0.51344168143662
H         2.52354758916228    5.24509634935587    1.06916151538509
H         1.17276037723831    4.31095925280407    0.41574064195337
C         2.99529550487440    3.68445182128213    4.14530694201967
H         4.04967549033805    3.47550416324510    3.92629333552648
C         2.69237818754163    3.08749873743993    5.52037743328107
H         1.63149450644252    3.22169490627028    5.75650938320702
H         2.91022388429853    2.00788028216177    5.47395585911707
C         3.53732096517802    3.75356473215962    6.60051631800378
H         3.28540800889635    3.34130723432363    7.58028478336260
H         4.59422159063155    3.55018668097982    6.41160251638542
C         3.30615382077614    5.26226855046192    6.59745127144273
H         3.92731439232876    5.73663295865342    7.36001659496269
H         2.26129485231568    5.46945675316829    6.84126156482613
C         3.63062988951515    5.84802701268489    5.22642572185032
H         4.68699448074780    5.67928461168200    5.00303034315056
H         3.45822153507914    6.92672915772545    5.23147648649232
C         2.77316064211390    5.19436799317422    4.14327535393431
H         3.03192830973207    5.61558631836073    3.17000138183247
H         1.72226090836052    5.41974492561153    4.33597868500204
C         1.43852140571972   -3.04448281197648    3.91922124575632
H         2.52317227651599   -3.07915332813831    4.09174331559190
C         1.21263601389572   -3.22277651468885    2.41906423685685
H         0.14398706056185   -3.17535569904000    2.19649923001264
H         1.71651618076652   -2.41374861904571    1.88361903994750
C         1.75871640743882   -4.56842306877876    1.95224016853980
H         1.58330544507393   -4.68754101822874    0.88091257530809
H         2.83764886673403   -4.59882961190089    2.12045652203230
C         1.09010343082678   -5.70426201840316    2.72007154399171
H         1.49568224237080   -6.66524343396083    2.39695602358406
H         0.01833794729144   -5.70516577867248    2.50610670774322
C         1.30702874947074   -5.52740773758380    4.21940146982608
H         0.81132795975553   -6.33296425074576    4.76621608844695
H         2.37635492057012   -5.58411317576789    4.43716735773956
C         0.76907693581254   -4.17786904770939    4.69367084754193
H         0.95663663848997   -4.07639328485836    5.76378040885167
H        -0.31162260067816   -4.14690854618843    4.53691642240830
C         1.25241882992940   -1.35095871419556    6.27976759166353
H         0.65091745476335   -2.13496584228694    6.75743788704700
C         2.74349149050470   -1.59095270296215    6.51855411380870
H         3.02382981389266   -2.59353006030052    6.18987987763430
H         3.30074431551526   -0.86930811379167    5.91031846926965
C         3.11987176287885   -1.42577512199672    7.98775656828665
H         4.19321128364380   -1.58646545495122    8.10885514191032
H         2.60009792195915   -2.18028711063385    8.58450884108818
C         2.73753971694921   -0.03736382840877    8.48494020679226
H         3.00759361541900    0.07416884299864    9.53727084406985
H         3.28552585948503    0.71463760531310    7.91311821293609
C         1.24033570216972    0.17735750257452    8.30090873518428
H         0.95801549482082    1.17478161666610    8.64566037309306
H         0.69415071480355   -0.55124816142076    8.90624772905544
C         0.85155912745269    0.01554457833201    6.83516894467411
H        -0.22611422679702    0.16320541744193    6.73302873495068
H         1.35702082084249    0.78080964860837    6.23042214182555
P         2.01674684250899    2.70409621820858    2.90884991702470
P         0.94605964631150   -1.32739898543204    4.44612583556143
Pd        1.68353728313709    0.58218869520050    3.53518063529555

