101
CSD_code = CUGGER | q = 0 | S = 0 | Stoichiometry = C36H61ClP2Pd | MND = 4
C        15.66210704834977   -2.02459416476656   10.90420337764597
H        16.21127233792765   -2.24332734354946    9.98427171912659
H        16.10245503237865   -2.61508736480343   11.71237632569849
C        14.17171087076180   -2.37906240333341   10.76622071807966
C        13.38142406432087   -1.82267645268221   11.96083680620609
H        13.72004513121139   -2.34868303628773   12.87163615405811
C        11.88532551464527   -2.12296237705833   11.77141736967625
C        11.05347082089021   -1.51617466987299   12.91606327016912
H        11.07008417686625   -2.16958080722108   13.79009612460369
H        10.01037280286117   -1.39661159309211   12.61407333519055
C        13.63851299735914   -1.76428296968991    9.47093854963076
H        14.22394226228094   -2.11978237031960    8.61856562810677
H        13.73471276938071   -0.67122389211200    9.54677336934073
C        12.16792870585194   -2.10604280783657    9.27962152176006
H        11.80701764228334   -1.66460382146783    8.34337209421971
C        11.40751578617984   -1.50674604254094   10.45433492262132
H        10.33244070701286   -1.66573659104341   10.33220787124259
H        11.60870157868726   -0.42581689446934   10.49123930185983
C        13.97463537767138   -3.90093994146227   10.70708548751911
H        14.53707102799146   -4.31850660521789    9.86731528357834
H        14.35301300329858   -4.36010815902812   11.62436069621154
C        12.48891837194934   -4.22376473217603   10.54193468851718
H        12.35718294519476   -5.31212127012157   10.51878274146583
C        11.69127926979871   -3.64503385498819   11.71070690687926
H        12.02773428576433   -4.09662215281369   12.64786040370938
H        10.63119823924796   -3.88261068597441   11.58602147804421
C        11.97800868995530   -3.62017746801745    9.23615076378770
H        12.52650888613716   -4.03963018101661    8.38963788614879
H        10.92062224969500   -3.85996403235551    9.10254155132579
C        10.57888003236468    1.46019666364599   13.06645254383943
H        11.01646931371013    2.32472792126636   13.58358259501466
C        10.52824313912143    1.81473373875660   11.58047075874306
H        10.06005847311505    1.00204754907890   11.01923158531247
H        11.55287785959745    1.96068000510678   11.20891700633011
C         9.70660436901020    3.08436916061963   11.38245435364619
H        10.18800962768296    3.91281381967046   11.90600213281260
H         9.66389223470077    3.33891272050061   10.32145869668533
C         8.29410630793662    2.88222452505192   11.92587531051035
H         7.79596464449508    2.09546186681185   11.35307646396852
H         7.71325898333942    3.79911638303643   11.80636634132445
C         8.33300886228325    2.48486495911601   13.39947853775991
H         7.31754184972842    2.31755412027827   13.76658007119929
H         8.76908072818713    3.30036699997484   13.98140844502429
C         9.16960364047011    1.22131139989092   13.60021059478985
H         8.70081273660123    0.39379511502467   13.06187994626531
H         9.19301270021023    0.96281358609707   14.66116308821429
C        11.97120399505333    0.08215915762943   15.21598907588779
H        10.97099161529318    0.03461121211897   15.66694339280787
C        12.68559372848607    1.36737454678545   15.64441715755535
H        12.08486478056111    2.24097156759538   15.38502066498093
H        13.63015505762153    1.44548177006056   15.09066945661168
C        12.96258130611532    1.38575212469945   17.14368083697653
H        13.48577919784070    2.30735303811994   17.40460955718839
H        12.01494374978099    1.37213889435071   17.68943325295227
C        13.79687461901071    0.17750504471892   17.54953266844294
H        13.98102287772315    0.18979379997752   18.62590273991424
H        14.76207629558770    0.21968304969444   17.04102209659556
C        13.06995935299105   -1.10354260223745   17.15888192260502
H        12.12474677195028   -1.16376764821573   17.70504975214843
H        13.66874069767204   -1.97528152010033   17.43345617248682
C        12.78913231870927   -1.13240529128018   15.65869917771753
H        13.73619991772103   -1.13080835796757   15.10988067977947
H        12.26468649067938   -2.06025701385555   15.41997676851233
C        16.72381030012813    0.62931376969450   10.00466823177682
H        17.58808601760893    0.00286007548351    9.74256949026021
C        15.82583226845839    0.79519216679571    8.77830709205948
H        14.91397845006055    1.31970891393610    9.08705715143622
H        15.55015886967953   -0.18423080145592    8.38374266658901
C        16.51194402304416    1.59312518304615    7.67325192213488
H        17.39724123139137    1.05103887928739    7.32925728410480
H        15.83204929540265    1.69499666326688    6.82454742032229
C        16.92617926018392    2.96582081221530    8.18622199975243
H        17.41859541539060    3.53270840616633    7.39320153578158
H        16.03964477123979    3.52019351947630    8.49988819361509
C        17.86326544485084    2.79883642400519    9.37471182927543
H        18.16022609837892    3.77645217773814    9.75938903766840
H        18.76880783671802    2.27723091316348    9.05043755217888
C        17.19225230138336    2.00363839835639   10.49149428947262
H        16.32716428076290    2.55484770155952   10.87093706163975
H        17.90858675133844    1.89557814323327   11.30708971272595
C        16.99436109564033   -0.18234526332567   12.77546481134635
H        17.18579375252761    0.88462241713240   12.94781143882783
C        16.29866298307234   -0.70820767745120   14.03165112838369
H        16.01993838237584   -1.75886747499110   13.89620933946770
H        15.38236415736582   -0.10911309604844   14.18372747133320
C        17.21122768250913   -0.58249333207850   15.24764396608943
H        16.71713789256697   -0.99690558325587   16.12971870112585
H        17.41398987179229    0.47364170500385   15.43958723642396
C        18.52815079264968   -1.31379711184128   15.00263651299864
H        19.18106817075277   -1.20434033761403   15.87090256042421
H        18.33173615356303   -2.38014516494946   14.86494384284729
C        19.22053991366399   -0.76193635857338   13.76014556359069
H        20.15957459168215   -1.29350333226963   13.58932465453101
H        19.45702469623897    0.29309832313744   13.91761347009104
C        18.31946486355770   -0.90134497408009   12.53373611941845
H        18.82601866717510   -0.48383389755058   11.66143869208920
H        18.14176100958272   -1.96217146340770   12.34209253254577
P        15.78139030428063   -0.23144462382491   11.36634930319303
P        11.81547025657040    0.11008292405797   13.36102661091030
Pd       13.74752946491074    0.17649166846532   12.24663917923986
Cl       14.16168181021876    2.46762368690254   12.52994420379783

