36
CSD_code = CUGMIC | q = 0 | S = 0 | Stoichiometry = C15H15NS4Ti | MND = 12
C         5.26515635238348    9.39004609737474    6.66885572753125
H         6.32592535045573    9.46916070226620    6.86797331960197
C         4.30043376837450   10.39673208721717    6.89338626721730
H         4.48671852528784   11.38374722599282    7.29777208941539
C         3.02706622661719    9.83774375033438    6.66917747649210
H         2.07675525868422   10.32565432729511    6.84975055877352
C         3.20362205385345    8.48950628752647    6.28993544872500
H         2.41267192394160    7.76953688490523    6.11764743362897
C         4.59107370648215    8.21502734515321    6.28627537514429
H         5.04174763773081    7.24384236623734    6.12016520748745
C         6.33148420141871   10.25840072497375    3.92931469778856
H         7.21643600942967    9.67321994275467    4.14940210826000
C         5.87332071699075   11.38200146291454    4.65088337943626
H         6.34998410153632   11.81378096621464    5.52058206181982
C         4.76620536570792   11.92133529687887    3.96742826687438
H         4.23661836500874   12.83197334164822    4.22419838764923
C         4.59361156166378   11.17782903291033    2.77400168222152
H         3.92510163209514   11.44023881625491    1.96334004592846
C         5.55717655680087   10.15524273640523    2.75180188915231
H         5.74625209257165    9.47462746054081    1.93058238129704
C         2.08727464329343    9.55100694633244    2.41733680463811
C         2.93195718564740    8.49492255587740    2.18779662363977
C         1.61616240126559    9.22944140572212    0.18424865832146
C         0.39411500152878   11.00725912320085    1.35444070292431
H         0.32502516459920   11.43259080370703    0.35039977317910
H         0.75572078889322   11.76245798571162    2.05812154643824
C        -0.96133083324257   10.47400236605171    1.80023184456591
H        -1.31221336001796    9.71826092957770    1.10185875430699
H        -1.68160957083392   11.28596972238216    1.82892049667623
H        -0.88443024990223   10.03571396007402    2.79269522948216
N         1.37837307176484    9.94789546644522    1.30887342069721
S         1.92008090460669   10.30591026701914    3.95743002370702
S         3.90666990662503    7.75023739756597    3.38617571286060
S         2.82211441685319    7.98216097718802    0.51290103278222
S         0.90925753365150    9.47640285678730   -1.27136316961476
Ti        4.16737158821861    9.77862038054041    4.63015874095976

