71
CSD_code = CUGNEY | q = 0 | S = 0 | Stoichiometry = C26H38NO3PPdS | MND = 4
Pd        0.23333868110850    9.79861117009861    8.61425097273647
C         1.80743998183598   10.38147764479701    7.45144755117860
H         2.74714466009336   10.08315501094844    7.92717862034671
H         1.87338511205843   11.45306887035890    7.25999097517502
H         1.75310994312600    9.88656963636486    6.47692657355386
P         0.30108571535332   11.56448834784920    9.99736117967606
C        -0.52947222386262   11.39345812202677   11.62008464568344
C        -1.03305246558171   10.16523689524361   12.02311622897569
C        -1.67130252230005   10.01168680161933   13.23751839443720
H        -2.04217894931425    9.02986581242382   13.48656950005801
C        -1.82339089730329   11.09726395211682   14.08315867075953
H        -2.31603881024062   10.98230567470142   15.03700464656681
C        -1.35095294367463   12.33856297085341   13.68635982783542
H        -1.47987941120968   13.19742910626283   14.32944509183613
C        -0.71803360006742   12.48961675788435   12.46526008905244
H        -0.38110542927667   13.47119185686229   12.16938373108063
S        -0.89215146297519    8.73463896300756   10.93818182505208
O        -1.55239430635896    9.16051865995622    9.69117144588939
O        -1.58572456835144    7.65135280907617   11.58456393873392
O         0.54657810969908    8.52753622694282   10.79225346963478
C         2.02782524569323   12.10279850610363   10.41804547378326
H         2.48711771270835   12.30931765071809    9.44208413562807
C         2.72717212775338   10.88494604179404   11.02802346918883
H         2.55396653511767   10.00427211465981   10.39639202475947
H         2.28984937619329   10.67027869132136   12.00727136679722
C         4.22000379131176   11.15765703095154   11.17903922770550
H         4.71200056002764   10.29638321683792   11.63396486886568
H         4.66157882825817   11.31457821645468   10.19200388692304
C         4.44772550554743   12.39907558326485   12.03815630851717
H         5.51646246915076   12.60960188223494   12.11527316101234
H         4.06997655075102   12.21401056115546   13.04622114481162
C         3.72531303171389   13.60518598158979   11.44442155749916
H         4.14073827059674   13.82912634606608   10.45904759545451
H         3.87984278334785   14.48054143815941   12.07931808882702
C         2.22835117108429   13.32095683842717   11.31321257613939
H         1.82422954815650   13.12330651521213   12.30722285448833
H         1.72497206114964   14.19645522966639   10.89585348302855
C        -0.63109187248393   13.03290383740209    9.33177834342903
H        -0.59853688233447   13.87441880984808   10.03177833194000
C        -0.06127197587148   13.46108093582429    7.98308742640408
H         0.96397738714974   13.81926423053819    8.10147055221816
H        -0.04789590440852   12.58339380485022    7.32669974997873
C        -0.92037425717335   14.55014650157924    7.34539969298774
H        -0.92908728016973   15.43404950012449    7.98790131891599
H        -0.49196192800753   14.84066036784890    6.38414749436277
C        -2.34730208990187   14.04871671031596    7.15181595135928
H        -2.33948397533377   13.19225649165732    6.47441643348250
H        -2.96157515094493   14.83039819714950    6.70060941518255
C        -2.93853065864418   13.62732341870065    8.49287652924916
H        -3.95240046859190   13.24776918707676    8.35261808374112
H        -2.99729976585035   14.49783094810422    9.15144008391969
C        -2.07381123338126   12.55521166655468    9.14834016093539
H        -2.05256721274662   11.65423113864395    8.51911424069707
H        -2.50246349543189   12.27327388073380   10.11412561270896
N        -0.07814399331870    8.13184821505348    7.42967619368706
C        -1.23229797962971    8.11053581845909    6.75975719225567
C        -1.78299509604370    6.91875585455921    6.30553777419802
H        -2.71770362601530    6.92928194322260    5.76707070906573
C        -1.12730814524163    5.72938095312353    6.56958194646288
H        -1.54167310098937    4.78824642180144    6.24040781529504
C         0.06986971116678    5.76969963980339    7.26065405371620
H         0.61035787555236    4.86284363536248    7.48146290836970
C         0.57661945435991    6.99446222180898    7.68231658208490
C        -1.92255285711823    9.41921803671389    6.53113589589799
H        -2.52535724479283    9.63993190585804    7.41853104430221
H        -2.57870379144207    9.37293595228603    5.66411614288748
H        -1.17771136178350   10.21674611231573    6.40095298656312
C         1.87000334501410    7.09084250542634    8.41896059627912
H         2.56513216649242    7.72953448497506    7.87208652023678
H         2.31459694984297    6.10899686899859    8.55860029137015
H         1.68301427675001    7.54488266926414    9.40075332412363

