30
CSD_code = CUGPAV | q = 0 | S = 0 | Stoichiometry = C13H10CrO6 | MND = 6
Cr        0.37663071910736    2.19238384080216    2.49099119574721
C        -1.23965517825753    2.34400675831222    3.41589632715946
C        -0.43499010209741    2.52032212068685    0.84370317900606
C         1.41048728734358    1.63209419181499    3.93394647597230
C        -0.18857285935911    0.46920947198335    2.25361982068442
O        -2.25148756695636    2.32827218733004    3.96909551442696
O        -0.85792885200297    2.52306846707700   -0.22691070812568
O         2.15266960870141    1.12547025183706    4.65578911141732
O        -0.65013800047506   -0.58724741586955    2.13940473685598
C         2.18436383398302    2.24915088489815    1.72220851880334
C         2.93354116276420    3.49183658317503    1.88234851774760
C         4.26630214226352    3.65803083217887    1.48973566798975
C         4.91167675390946    4.86544547576726    1.66392814653828
C         4.23765052220915    5.93405200617238    2.23199532116012
C         2.91435881114871    5.80429925623477    2.62885692694523
C         2.26334248429652    4.59279960352269    2.45662187717138
O         0.96383394837950    4.34765776547478    2.80079264036254
C         0.21621171446442    5.40111324490440    3.37495011841017
O         2.95111751301274    1.32854891472710    1.14332517266636
C         2.41763872808788    0.05320836024005    0.85924436301366
H         0.14003518917933    6.24920383368211    2.68632592019783
H        -0.77838695012263    5.00054442327621    3.56579963737265
H         0.66080419012901    5.73031477433448    4.32005532967134
H         2.19745221519029   -0.49012442655051    1.78172041923566
H         4.78169116112664    2.81939671504640    1.04843364238924
H         5.94065532261110    4.97747814970534    1.35865654132446
H         4.73849516002198    6.88002829181313    2.37031746474985
H         2.41342203733347    6.65272629931914    3.06705085729794
H         3.18543216141523   -0.47690153689557    0.29618347469515
H         1.50564684259301    0.13291067499917    0.26171378911413

