39
CSD_code = CUGYEI | q = 0 | S = 0 | Stoichiometry = C14H20Cl2N2Ti | MND = 12
Ti       -0.70006255761636    2.96894329470241    4.51734936649998
Cl       -2.25462132338740    1.37627929819600    4.83150416665751
C        -1.31358670812046    3.25341070197762    6.91220546479226
C        -1.32200729742750    4.48674299847336    6.20394709767110
H        -2.13300465286006    5.20115005154201    6.20104267862200
C         0.00405922014851    4.76845308805722    5.78246980884197
H         0.35200900841917    5.71796886554678    5.39799200191022
C         0.81002094637091    3.66854426753415    6.11642348653624
H         1.88469730932454    3.59857411567425    5.99784583790946
C        -0.00597479702772    2.71442033043918    6.77629083959892
H         0.35797271274923    1.79635272088056    7.21738093352691
N        -2.33626841026280    2.75041124326476    7.66972212666667
C        -2.19458960785431    1.41029391849262    8.19918276244868
H        -3.02469810205955    1.20992002361266    8.87391226184720
H        -1.26772857242270    1.34539240950794    8.76874732977477
H        -2.18653046866736    0.65183249887150    7.40934739799466
C        -3.68182992785011    3.16956837969905    7.34186567731553
H        -4.37691411955859    2.71409260067343    8.04363989565867
H        -3.76347803106927    4.25263599194384    7.43657160868097
H        -3.96074102382279    2.87354473751635    6.32207754812276
Cl        0.85443259655879    1.37624032949776    4.20288704907485
C        -0.08665336479564    3.25341641781913    2.12246433617744
C        -0.07818171004249    4.48674540343195    2.83072428754907
C        -1.40422484264399    4.76847263985996    3.25225727413933
C        -2.21021882742657    3.66856602674660    2.91836342448448
C        -1.39426818996651    2.71444156783458    2.25844115835521
N         0.93597988952369    2.75040900052459    1.36489377079792
H         0.73283328939096    5.20113249784995    2.83361245607271
H        -1.75214825593942    5.71800107290537    3.63672661029020
H        -3.28489827971388    3.59863264985999    3.03694851386034
H        -1.75825505731946    1.79639491483102    1.81733992231255
C         0.79427926636980    1.41028438745236    0.83546007711968
C         2.28155827918589    3.16960593111010    1.69262708984450
H         1.62434621837621    1.20991014527031    0.16068068613811
H        -0.13261658242674    1.34536299033432    0.26595465746290
H         0.78627943217470    0.65183448850653    1.62530800692509
H         2.97659919973282    2.71409974553319    0.99082969895378
H         2.36318288447320    4.25267004423583    1.59785161187630
H         2.56055045748568    2.87364820978309    2.71241107748144

