50
CSD_code = CUHBIR | q = 0 | S = 0 | Stoichiometry = C18H23F5IrN3 | MND = 8
Ir       -1.41494452759606   12.20246304596285    3.58299807197318
F         0.18675830107899   10.11907725547690    2.43239094170797
F         1.12629226065749   10.88781223203201    4.22760292428849
F         1.00700114282693   12.22837732027905    1.00628129897114
F         1.59018527780591   13.33366827406544    2.74952643716898
F         2.62927019975147   11.52872362048146    2.22239477443108
N        -0.34733832099595   13.33881553548156    4.89780921377991
H         0.01078299526807   14.21911699556822    4.53940928310932
N        -1.52692597416870   10.80879782330926    5.07330383807909
H        -1.97575997809119    9.93287082879426    4.82220026270333
N         0.26024292784397   11.81153072305047    9.31212252409926
C        -3.24015277599410   11.61578027145766    2.43739420329545
C        -3.62451559724768   12.63816973643431    3.38230481383426
C        -2.92949114255550   13.82102538755927    3.04325937187578
C        -2.07386677381550   13.54027023816932    1.92012554953604
C        -2.33626683249410   12.19309624105279    1.50517972398090
C        -3.88777231019198   10.27630497755213    2.27911036443854
H        -4.70483650424635   10.34352773900104    1.55833135727150
H        -4.29956503729271    9.92019391006776    3.22085205814259
H        -3.17352618489414    9.54341121266458    1.90941761971603
C        -4.72116763502931   12.52070424948946    4.39295382479667
H        -5.67875612833251   12.76954131851597    3.93168788669537
H        -4.56028515621038   13.20048038091114    5.22669050540840
H        -4.78933733871601   11.50870441855660    4.78592536118657
C        -3.12948675542119   15.16437134284727    3.66699736616146
H        -3.97893090094462   15.66278077615583    3.19666436677017
H        -2.25403531413538   15.79506087184759    3.53297936475292
H        -3.33616762514219   15.07936541619524    4.73192048388640
C        -1.35310432330689   14.57954474953249    1.11804501222095
H        -2.05501720436649   15.09098543996021    0.45667389105292
H        -0.57405817553406   14.13232171807324    0.50730186325568
H        -0.89165555163832   15.32554175849850    1.76184478345013
C        -1.90328854830218   11.53659036170521    0.23517777098757
H        -2.76702082069690   11.42622235366730   -0.42247146074906
H        -1.49429305482523   10.54545566249133    0.42077388765538
H        -1.15013179512882   12.12467849951912   -0.27880653475508
C        -0.03766137865868   13.11956060415983    6.14569153406741
C        -0.40032819961755   11.94946628388011    6.84754803978791
C        -1.09809971143436   10.84808764311246    6.30217183515551
C         0.74472378450865   14.15812105015879    6.89748868351202
H         0.90312991757082   15.04715692432736    6.29101041628341
H         1.71333891416388   13.74783953488857    7.17859849592109
H         0.22911626688730   14.43401109297107    7.81549779729892
C        -1.34472976011746    9.67408170903956    7.20588727190714
H        -1.98027019250782    8.93262116846248    6.72614235096229
H        -1.80741743790268    9.99856088634117    8.13594155589262
H        -0.39318768895330    9.20924592467271    7.45964900543929
C        -0.02640534119325   11.86865445491831    8.19971983147946
C         0.40454584239203   11.29480314566088    3.12395004196405
C         1.41841016694521   12.08720689097992    2.27233013515103

