41
CSD_code = CUHBOX | q = 0 | S = 0 | Stoichiometry = C15H20F5Ir | MND = 9
Ir        2.93406918451679   -0.42066668433216    3.51892106205535
F         0.99872146655898   -2.72453799401431    3.50032355257148
F         0.11731579460764   -0.85341867846089    4.11930531009815
F        -0.52408773828131   -2.16851039728181    1.59008606293980
F         1.31096188506153   -1.33175640723254    0.85662979314440
F        -0.20390490442481   -0.05051066568804    1.67972158757288
C         4.36489493715576    1.26474824350708    3.99261589344591
C         4.14486924092681    1.29340933499991    2.58220619280546
C         2.75888437229039    1.49756680994374    2.34929816807238
C         2.11680770900229    1.64796758279371    3.64243459794059
C         3.12001298824182    1.53607294733338    4.64500831192121
C         5.69991752487256    1.25881854063972    4.66879756643092
H         6.01526706647090    2.28521406390780    4.86476011322665
H         6.45884052714142    0.78929922915386    4.04660892525963
H         5.66004558482750    0.73522645717501    5.62250679208394
C         5.19215945450378    1.23696387251564    1.51902996241714
H         5.52717140862391    2.24770597660768    1.27864957386634
H         4.79518083507391    0.78886988362297    0.61121684770006
H         6.05865401261061    0.66283174832022    1.83991679072272
C         2.17370806887084    1.84166121397512    1.01523649824837
H         2.58823786333758    2.79173606691171    0.67365798949744
H         1.09442644839459    1.94014364986716    1.07018093368222
H         2.41141808067043    1.08375612736962    0.27108170317319
C         0.73302831227733    2.16124587838925    3.88786871295560
H         0.77377416623932    3.24093868039464    4.04238962337897
H         0.29941476636014    1.70620916515371    4.77509307784590
H         0.07567185032645    1.95790843827448    3.04850669932992
C         2.92891936351762    1.81869654574385    6.09971345219678
H         2.98519747968726    2.89446594582806    6.27654007429984
H         3.69639611678716    1.33653180407890    6.70026462309976
H         1.95521269227644    1.47195138424564    6.43723789896548
C         3.83790188269517   -2.20318302169389    2.63435065223570
H         3.11777589993136   -3.00056678444812    2.49727965702676
H         4.52226840348985   -2.09761726471859    1.80144308328175
C         4.33874218249100   -1.94185476124400    3.93460990809311
H         5.35738460222478   -1.59140255137130    4.07744887674345
C         3.41809179132273   -1.95507099752782    5.01040168525350
H         3.78052427413452   -1.65276587777834    5.98554498239391
H         2.65992558255564   -2.72566430607217    5.05385754440446
C         1.05047884961516   -1.36687977312214    3.23824528416155
C         0.39771997301473   -1.23513342576706    1.84040993545583

