123
CSD_code = CUHDEP | q = 0 | S = 0 | Stoichiometry = C44H73BrNOP2Re | MND = 5
C        18.72933314941137    9.23404093304868    3.88245308843608
H        19.26235662279685    8.37077936133472    4.29620961993217
C        19.45186135597874   10.28441606416156    3.49747230545633
H        18.94408039655977   11.13608743687455    3.05778112509530
C        20.90141160861971   10.42882588884555    3.57148760186710
C        21.71500488349860    9.58234186348678    4.32652192295303
H        21.27240799950859    8.78157417913970    4.89996260482700
C        23.08353911711158    9.76411043992534    4.36294628868500
H        23.69625994069007    9.09954025752520    4.95580865678943
C        23.67452829278750   10.79380751542028    3.64913852329389
H        24.74525004444179   10.93321426207279    3.68024066978569
C        22.88005760294632   11.64637753618064    2.90004916456091
H        23.33177504468393   12.45513461284456    2.34304629393820
C        21.51150682140886   11.46801863879430    2.86525350996705
H        20.89625093339004   12.13640791978624    2.27961940272769
C        17.23598815444517    6.19018787100420    1.38342909991534
H        16.57476675985178    5.58340725343102    2.01853015392303
C        18.64327363018387    6.05209102962272    1.96681558043453
H        19.36963327765955    6.58499098278824    1.35363774113759
H        18.67666233354461    6.48468394507877    2.96767693135045
C        19.02381827557935    4.57573140873216    2.03348121774800
H        18.33540063575405    4.05441410595327    2.70264212001998
H        20.03023149657002    4.47367236570595    2.44416032581880
C        18.96294777135583    3.94714851435966    0.64446353246421
H        19.70548942283226    4.42381928806235   -0.00053142814714
H        19.20691019085207    2.88463557277819    0.70460171938194
C        17.57558779151155    4.12533271718396    0.03410124252572
H        16.84157426992069    3.58909565315817    0.64059548630614
H        17.55287010348249    3.69913135143422   -0.97161154627425
C        17.20028457203238    5.60576932666380   -0.02568284094557
H        16.20897227349285    5.71272614477666   -0.47126128593009
H        17.92058218817024    6.12490726664878   -0.66010570715298
C        14.77349769538004    7.72514840562119    1.05463971624262
H        14.76810776794285    7.35256199779974    0.02309698558102
C        14.07977358603659    9.08833693663443    1.10938357794461
H        14.08927659150004    9.44950762405025    2.14391582133139
H        14.61234192150842    9.82453562946370    0.50576256394681
C        12.63585111444967    8.98099169983249    0.62834630643732
H        12.15726377799928    9.96101217191835    0.68319593238971
H        12.62611155859893    8.66290604504701   -0.41758354633236
C        11.86128121187950    7.97311856572132    1.47069502100782
H        10.84030500612318    7.87629032488264    1.09595319017895
H        11.80274825228368    8.33335857891992    2.50076799306923
C        12.55776262010694    6.61668264989339    1.44937972438762
H        12.01919268769269    5.91034834103084    2.08497617721996
H        12.55122691339571    6.22048736293214    0.43050150543704
C        13.99960979679809    6.74172882319934    1.93315473958193
H        13.99431016476576    7.09896215221100    2.96661548449888
H        14.46692158699514    5.75507731313379    1.92364335905893
C        17.24974823182590    9.04397348597322    0.26829647622920
H        16.91367232092858   10.03060252297850    0.61939325863272
C        18.77750134798860    9.05788855226396    0.31255984736139
H        19.16960038787777    8.13867991524575   -0.12617914532400
H        19.11375653169219    9.12605405193457    1.34911421015971
C        19.30349765430463   10.24280163217689   -0.49110768616014
H        18.93247207917917   11.16968097488776   -0.05009422362560
H        20.39408575473759   10.26366570624822   -0.44855216172083
C        18.83436921830012   10.13970091703750   -1.93932659036338
H        19.26499659652826    9.24524423784828   -2.39657603927590
H        19.18097774852156   11.00375932670875   -2.50953914177932
C        17.31198417863244   10.05722459890035   -2.00307504425505
H        16.98881885936617    9.94966047351405   -3.04114673989205
H        16.88505648444384   10.98447005708461   -1.61406187002176
C        16.78688512701697    8.87977995868769   -1.17929883540500
H        15.69921467120572    8.85946441609459   -1.25393389367123
H        17.17141661834824    7.95075518557443   -1.60123964600653
C        14.36344994687755    9.94708427712103    6.36031194950802
H        14.20228356310749   10.44751890171792    7.32276446717299
C        13.65420989062319    8.59294671435413    6.39134000669246
H        13.80530584767017    8.07545438170416    5.44022337447569
H        14.05550721131264    7.95801674182813    7.18355999794499
C        12.15671117941693    8.78370324447793    6.61643466775968
H        11.99506989441443    9.26006414358128    7.58709224474150
H        11.66367814046049    7.80930773496668    6.63718069022814
C        11.54997914104552    9.65131517695285    5.51884466630503
H        10.48497579904221    9.80252946438236    5.70625928427807
H        11.64734732934791    9.13875112602781    4.55856918110966
C        12.26625272495487   10.99577332523059    5.44751312397876
H        12.10253424261705   11.54418355541215    6.37900868607544
H        11.85752059865593   11.59535989368056    4.63142949092487
C        13.76361689538871   10.79514952834710    5.23623957205173
H        14.25902273893029   11.76508638068007    5.16990479653295
H        13.92602460991822   10.28192797211441    4.28138979773870
C        16.78831153842703   11.56437486861057    6.29541229319076
H        16.58229707967647   11.98386769436120    5.29989323968495
C        16.11026692903427   12.46202393063283    7.33041492916696
H        16.35258858431125   12.13251583116656    8.34136397142571
H        15.02528373654269   12.45073888313300    7.22196705595530
C        16.60355709483636   13.89772137239095    7.14014279194050
H        16.31282569891429   14.24651104186529    6.14659178662525
H        16.12588614204832   14.54826574558081    7.87652587164020
C        18.12071886760387   13.98330426313876    7.27796186989473
H        18.40846280790380   13.70423634955676    8.29483742619829
H        18.44907895123354   15.01082830996103    7.11012068081249
C        18.80003266229691   13.04561854139543    6.28439946221511
H        19.88362317294130   13.08192881097415    6.41180855802794
H        18.57277054393479   13.36151539984567    5.26477961828137
C        18.30339102399415   11.61839794101589    6.49126851485600
H        18.55754837919687   11.30563372306979    7.50556758188352
H        18.78815278848708   10.94616857541733    5.78060707051019
C        16.75450231199054    8.76975394743447    7.55142638752679
H        16.14585477344502    7.85901831766915    7.45750308047382
C        16.49915024760224    9.36701593520032    8.93235773965781
H        17.15805165400985   10.22178658364900    9.09386463801121
H        15.46554981706014    9.70643308314691    9.02827946779301
C        16.79074084272899    8.31296163973984   10.00005865402439
H        16.61228790672822    8.73502970207718   10.99184803968509
H        16.11133805546857    7.46696453659616    9.87007046841368
C        18.23256821054776    7.82450043199500    9.89315135513848
H        18.91210529197111    8.65697762203111   10.09278811196964
H        18.41904591469614    7.05457641289481   10.64452505137873
C        18.50949749604603    7.27024437173319    8.49884130544831
H        17.88237482037522    6.39346722715215    8.32142490151015
H        19.55221563116728    6.95509638278037    8.42437823202117
C        18.21394388429237    8.32613488549251    7.43718596153000
H        18.88735477785155    9.17230790159056    7.57154284099000
H        18.39890597826496    7.90929253172562    6.44628166781383
N        16.35660018650353   10.47119129553331    3.16039132843832
O        16.11591372391917   11.53824115897202    2.69356724277033
P        16.55557968289975    7.91203456400054    1.58120908838442
P        16.20681133209190    9.79961539360389    6.09953592951329
Br       16.35245200475552    6.66401391123714    4.75718056687967
Re       16.62981667490630    8.89733597673991    3.84184877305979

