75
CSD_code = CUHFER | q = 0 | S = 0 | Stoichiometry = C30H34BClN6P2Ru | MND = 6
Ru        4.66329819652579   17.18203295276456    2.47327771065077
B         5.29344416023929   16.20874600986455   -0.47651924769870
H         5.53135791603380   15.84210500622402   -1.57446856750325
Cl        4.18907261971992   19.46378420713948    2.93085082058700
P         6.27361599923054   17.07934308521156    4.14291247884887
P         2.85654694758393   16.48672610884407    3.72985140379878
N         5.18509486077417   15.29380116344249    1.83867890559670
N         5.40077074268810   15.07428783935291    0.54319619593620
N         3.48517994526483   17.36829436184173    0.78783787703708
N         3.89502263537899   16.82136085903001   -0.36010615491466
N         6.11093056508906   17.86394283096517    1.19245087630770
N         6.25372149145100   17.31512273119012   -0.01370068345364
C         6.16620470801376   16.02026134093442    5.64864944499352
H         7.07532634465972   16.14363911425388    6.23702648113218
H         6.06656442687028   14.97529651806692    5.36461586570415
H         5.30359087169304   16.30733984586873    6.24594155624406
C         6.81237201471405   18.66661145505160    4.91222543689595
H         6.22295056987848   19.47926896137923    4.48685430908704
H         7.86914024640782   18.84072209141354    4.71488487570677
H         6.64198091224338   18.63557901274006    5.98682788839345
C         7.88321498382041   16.44267407665957    3.51061456717509
H         8.61877338654009   16.42814052006842    4.31461262137769
H         8.24238606142060   17.07836948901177    2.70301307764477
H         7.74615543825971   15.43191408402654    3.12832750051620
C         2.70308803758495   16.89062380705564    5.50685445677422
C         1.74972176108567   16.27419234093075    6.31319668398259
H         1.11948635123458   15.49578211813037    5.90527657023169
C         1.60164938308775   16.66826171867639    7.62981240611821
H         0.86826785982944   16.18147592496681    8.25661834639651
C         2.37916433510005   17.69519554208491    8.14318235994851
H         2.25480915072949   18.00175666262706    9.17159622103489
C         3.29729622698006   18.33977084123427    7.33158031079638
H         3.88307791529889   19.15953335234946    7.72135161920825
C         3.45794825777234   17.93991656990148    6.01597481204055
H         4.14705752277289   18.45313601186272    5.35660019457605
C         2.64723687362465   14.68049484331690    3.64734261169831
C         2.37018207394956   14.15470078976888    2.38533893572777
H         2.22084184308891   14.83510622732237    1.55418101756019
C         2.30035531440276   12.78922387885647    2.19168516259617
H         2.07870920176466   12.39170321863449    1.21171549679161
C         2.52886332825098   11.92946454522959    3.25499929609227
H         2.47714136509262   10.86088619760962    3.10682682713640
C         2.83951807861393   12.44227083062313    4.50280197217771
H         3.03694179872573   11.77215987402823    5.32746107393047
C         2.90713965197423   13.81135983492319    4.69971683515255
H         3.17150421410785   14.20443021474789    5.67163981566568
C         1.16027306383292   17.08470293099132    3.35905175349603
C         0.95802681642848   18.45259347585619    3.54754183837963
H         1.79847174744928   19.07689198514753    3.82480604709348
C        -0.29228831693950   19.00691157979188    3.35433616147185
H        -0.43678980171558   20.06797530557189    3.49563030392642
C        -1.35724401829879   18.20240872476267    2.97913208506531
H        -2.33603518781389   18.63358418354859    2.82732013137178
C        -1.16372701617037   16.84392167202369    2.80322728327830
H        -1.99248858038982   16.21178003998986    2.51739842481202
C         0.08790091464986   16.28163219994528    2.99523432673125
H         0.21650178137680   15.21698949145260    2.86325960588293
C         5.43924918999562   14.16381948853102    2.48321359060598
H         5.32421791303665   14.08676217581694    3.54643657848900
C         5.82329260542174   13.17709940826260    1.57636242806353
H         6.08568167668717   12.16174416160876    1.79061998185846
C         5.78613139514503   13.80346220127362    0.35036729911468
H         6.00679099191376   13.43370824302730   -0.63011576085391
C         2.35751753958250   18.01818779338539    0.54758784973974
H         1.84850031520796   18.56781504942263    1.31468204565901
C         2.01254778614868   17.87764009866114   -0.79723377417450
H         1.15490136603227   18.28309775720879   -1.29284638408418
C         3.02133023671217   17.11246022464451   -1.33728096139122
H         3.17621195537820   16.76353289453791   -2.33826826997807
C         6.96378552578610   18.87145499607896    1.28864633905287
H         7.01253709284775   19.47948988440242    2.17234434651300
C         7.69224226401378   18.97936913999526    0.10325795096071
H         8.45515410925608   19.69309632710511   -0.13052953799394
C         7.20486649244891   17.96982697919509   -0.69774817474386
H         7.46752355240294   17.68143257753724   -1.69544177408896

