63
CSD_code = CUHKEX | q = 1 | S = 0 | Stoichiometry = C21H36NNiO2P2(1+) | MND = 4
Ni        4.42472903780521    8.22955078325783    2.31985468890981
P         5.22472453931513    7.40022738228299    4.17091320936479
P         3.44012737645370    8.50676985571405    0.39588228372637
O         2.03723377401139    7.72906981419460    0.59267093857942
O         4.24740745362788    7.34339664116221    5.43355553227291
N         6.11198086277360    8.69307673309623    1.66451928960171
C         2.62643848716509    7.82640684271330    2.93386309180837
C         1.68079398631368    7.57967703283883    1.92260062130949
C         0.36973719947945    7.22647581915059    2.19173652993963
H        -0.30058265081234    7.04627158631253    1.36663196941346
C        -0.05108115039815    7.13355605676333    3.50451544393670
H        -1.06696692985382    6.85201081422508    3.72933779305186
C         0.83492184725187    7.42550594885146    4.52190460847977
H         0.50484138667703    7.38466462186679    5.54847337673489
C         2.15526134708905    7.77553124392399    4.25057322500836
C         3.04299490851130    8.10973205973537    5.42411696811897
H         3.27714022878002    9.18136268457114    5.41601697995259
H         2.54108021198211    7.86996943635904    6.36381115895053
C         5.63071660887363    5.60648017327944    3.98894389714271
H         5.82551094337774    5.21082451917723    4.99082902571090
C         4.39488911668539    4.92938710675043    3.40336137009717
H         4.13229555078158    5.39124061190631    2.44686947292784
H         3.54538895054923    5.03253661626883    4.07573757041288
H         4.57746131399171    3.87001530418346    3.23821822869822
C         6.84395532913311    5.41911602826148    3.08804766828714
H         7.01797156356603    4.36008951615664    2.90981252656336
H         7.74265198579591    5.83857329985707    3.53450602206751
H         6.67444343147142    5.90173952852226    2.12486965072287
C         6.73184088462263    8.23233548121981    4.87943131445673
H         7.52200632278169    8.17023760488505    4.12459028480501
C         6.36963130033494    9.69821150171237    5.10794245249472
H         5.66899309524651    9.78644225586778    5.93604790900632
H         5.90659341828120   10.12700907942695    4.21492357577501
H         7.25345066508714   10.28379572976961    5.35256930363046
C         7.18810319045472    7.56033710416403    6.16684638073894
H         7.97835869038487    8.14796097985994    6.63021011087295
H         7.57468735790653    6.56182220474433    5.97951419135703
H         6.36109941835226    7.48658734290184    6.86928709948512
C         2.91012697377124   10.22234171633989   -0.06102619717730
H         2.13447496185443   10.14410973070730   -0.83016724125999
C         2.32119467864273   10.84875735289249    1.20109313730284
H         3.04296629991988   10.78762933818131    2.02293285892829
H         1.41288455502350   10.33189238936394    1.50713247620635
H         2.07870688923134   11.89608379440166    1.03494253605665
C         4.09683719656525   11.02659848906266   -0.57528026383454
H         3.78898483320160   12.04581467507067   -0.79893016802973
H         4.50922021954851   10.59120864757761   -1.48293968845497
H         4.87935619261880   11.06742833813698    0.18193818505761
C         4.07037751504815    7.68420505902326   -1.13462431376446
H         4.97880992249002    8.21661406123338   -1.43713888789755
C         3.04099762281259    7.72412633141899   -2.25668431535005
H         3.38974061395838    7.12417913797568   -3.09485897040391
H         2.87737270782790    8.73826783116251   -2.61278576688095
H         2.09370259062094    7.31385019492489   -1.91502354785293
C         4.43476480935566    6.25256319035334   -0.74796997209821
H         3.53728832427224    5.69635496346403   -0.48393093446891
H         5.10963394293298    6.24854834707515    0.11137230427391
H         4.92417775006447    5.74094635828141   -1.57349156436856
C         7.12368869401437    9.07609066038231    1.27575001071465
C         8.37765674226307    9.54242195071396    0.79536106807978
H         9.07622022716407    8.70809681060755    0.72405739109576
H         8.78073711241247   10.28750455691838    1.48206796004782
H         8.25624757053441    9.99296872880736   -0.19013186032655

