56
CSD_code = CUHSEE | q = 0 | S = 0 | Stoichiometry = C26H25ClN3Rh | MND = 8
Rh        7.18992307865861    4.80865757783135    8.57097130319746
Cl        8.70933675133141    5.86833766382017    9.92826968383611
N         5.74481815831297    5.26988212203623    9.90752247887146
N         7.47688286753028    3.16233243821419    9.67597452364601
N         1.31754483606074   -0.84840189850474   14.75108222896596
C         6.57029484694439    6.02291690653980    6.81972854108813
C         7.97491238991979    5.82266426585605    6.73467001013479
C         8.22590619341853    4.40897309747112    6.68544214770059
C         6.95500453408920    3.74068497248973    6.63755728418603
C         5.93438080573475    4.72734810496779    6.75310334833368
C         5.86563622394931    7.33906842435670    6.68422099510733
H         5.79445214915924    7.60316610715982    5.62671187192062
H         6.40802890269633    8.13069842559810    7.19672893617233
H         4.85698348205940    7.29003358796381    7.08790732160708
C         9.02963296615042    6.87519661702764    6.62288538055075
H         9.60193126458670    6.94582535826005    7.54870441325091
H         8.58737362356774    7.84641501158551    6.41781291134589
H         9.71657896397291    6.62038207183443    5.81656675846784
C         9.56069593294697    3.80236771115284    6.37289672760335
H         9.79944029815865    3.97095737072884    5.32038141718558
H         9.55913812324719    2.72956560615223    6.55055332896159
H        10.34348430658336    4.25984575890299    6.97493717890428
C         6.75172319348150    2.27972101999912    6.38721904800725
H         5.77865450226411    1.94958722329057    6.74365222428490
H         7.51732420928317    1.68357507253137    6.88053936243028
H         6.80705744430876    2.08586903868303    5.31440018627589
C         4.46097327597290    4.50207108808355    6.61937498297304
H         4.16107585442692    4.65519163729968    5.58085535883421
H         3.89859346511282    5.19681481929854    7.24059581654342
H         4.18838069870567    3.48950300234014    6.90795371500467
C         5.18226866905930    6.46464404671056   10.00307503166787
H         5.62052681349808    7.33420410661719    9.54462429362483
C         4.01277909877771    6.40704256004752   10.78308999391259
H         3.36952556893045    7.23446448642904   11.01156368217171
C         3.87097073311514    5.10053813970908   11.17807485589103
H         3.08833121660351    4.68011867058891   11.77867336433336
C         4.98373501051894    4.38915901166718   10.65033698882687
C         5.35328070565656    3.06720203153282   10.90067200616480
C         6.55727641676633    2.50760301048443   10.46796803191082
C         7.12806152454817    1.27226977582115   10.88001615224244
H         6.65674136502200    0.55152546686677   11.51937445101512
C         8.39076486223558    1.22021783078611   10.34458866374574
H         9.11973646454465    0.44182586983099   10.45896451235205
C         8.56243433720459    2.40591609131833    9.60867145188605
H         9.44008998723392    2.72218179006382    9.07185945601432
C         4.47686380238558    2.23059950331311   11.74049525124483
C         4.18615442311936    2.59645755176731   13.05311016437719
H         4.61919843129273    3.49814360711370   13.45870221467756
C         3.37443592976766    1.80299884959328   13.83789877888889
H         3.15383132231624    2.08206091066337   14.85759973302638
C         2.83469363052225    0.62845725226908   13.31182049154301
C         1.99783718186187   -0.18619723002275   14.10852638044719
C         3.12395198290300    0.25423883365764   11.99885140338410
H         2.70590995177027   -0.65776217657703   11.59882542109112
C         3.94428788387046    1.04991582007476   11.22601711091987
H         4.17234934388429    0.76552398662715   10.20958062929036

