57
CSD_code = CUHSII | q = 0 | S = 0 | Stoichiometry = C25H25ClN3O2Rh | MND = 8
Rh        5.61365905209446   16.23454935873425   16.25012440765777
Cl        6.07870986325921   16.50373311173217   18.49639267465315
O        14.37690777549704   13.19570276574257   13.14670017316187
O        13.13996078040671   12.16913607436161   11.72126060035019
N        13.29877584809400   12.89371266708330   12.68109336129851
N         6.57557176918951   14.49094823487414   16.33252821696839
C        12.12212827481245   13.43830454427400   13.30883687136701
N         7.41128687294262   17.03004279062058   15.82218326976027
C         8.64921031788666   15.03305996482685   15.14398962084661
C         4.47512446248155   16.43558957304946   14.37955260530346
C        11.12710168824129   14.78411514871677   15.01601656524358
C         9.74425651054220   13.64961589941692   13.40016022975180
C         3.44306156984089   16.00440633993280   16.40040250869055
C        10.86843713204588   13.12808840691040   12.79446780946256
C         3.74392801233513   17.42351481481207   16.33688068109511
C         8.90094112342165   18.62315118236128   15.27312366954030
C         9.42350487279193   17.42744520106017   14.84898551884725
C         4.90011643713106   16.29733589012698   12.95115812499894
C         8.49616247734316   16.41718804998939   15.22736542525523
C         7.93398790350322   12.72859018966259   15.89328366302636
C         4.35642481422164   17.68671488929308   15.09024487510949
C         7.66005521310015   18.32956068057108   15.86865234928944
C         2.61091551641226   15.38535306285490   17.48057306127230
C         3.83253084251699   15.42200187269593   15.16320068907539
C         6.87866434299085   12.28662198416552   16.65105945161601
C         6.06578096710638   13.40727231492927   16.89841528544732
C         7.74866849138360   14.12620131088398   15.70588314260123
C         4.66318552072938   19.02564557538829   14.49561101643582
C         9.86230577041258   14.48641896723264   14.50990942807395
C         3.30237311607951   18.40786382066371   17.37170037726159
C        12.25715863895826   14.26143879728955   14.42099576906596
C         3.55134896162859   14.03005339613269   14.69262569936077
H         9.33503037671245   19.59914547157550   15.17671111385545
H         8.76364339860317   13.41998703893796   13.01256494135809
H        10.79706785027574   12.48336914993505   11.93181653988843
H         8.76782287144325   12.15818142343087   15.53344657187786
H         6.97638708963825   19.01951168124980   16.33339967084232
H         5.16139751546207   13.44629688583745   17.48139029224854
H         2.21298134301822   18.41215039181871   17.42788510850401
H         6.69582339027017   11.28975099963985   17.00139928121939
H         2.58102999198208   14.30233363114186   17.38863904282957
H         4.71511503968083   19.79768878212049   15.25904205701147
H        13.24419522486943   14.47520560677397   14.80185156778309
H        10.35447436337610   17.26285340373279   14.34314088422255
H         4.06124805745994   16.53302988591653   12.29294423352466
H         5.71551647079047   16.97893849345632   12.71748794520678
H         5.60550472797344   19.01383804481548   13.95068093386053
H         2.70228071638274   14.05129669937072   14.00700509151731
H         4.40354306508401   13.60925175493282   14.16166356479667
H         3.00773237745926   15.64149248678265   18.46148712220700
H        11.21306132699234   15.41133694154031   15.88960954144994
H         3.87064190077304   19.29223936970564   13.79358182076747
H         3.30528589203997   13.37095697641265   15.52097692354336
H         3.64314764697114   19.41239009542222   17.13542897812621
H         3.69272707491281   18.13201324716071   18.35061292616366
H         1.58894818764552   15.76351524141907   17.41755016556903
H         5.22594916083974   15.28214941642337   12.73610653979107

