71
CSD_code = CUHTIK | q = 1 | S = 0 | Stoichiometry = C26H36N5NiO3(1+) | MND = 6
Ni        3.96636660225986    4.95050499527104    4.65928296171544
N         3.80388733927724    6.80450581902288    4.45270374387376
N         2.68862468075416    5.07977315613411    2.64815925855430
N         5.36978187839704    4.92676136964487    3.40829904348956
N         5.80587513091505    5.64266451317412    6.00990439220063
N         2.92052072898621    3.40071788849549    5.88293976257951
O         3.94693186972506    3.16192209562786    5.19893823463811
O         2.53364607626339    4.59365088728307    5.81411828380347
O         2.36932501435120    2.57716811863611    6.53216793145142
C         4.61498615114127    7.63269370717576    5.11803794534060
C         5.10661508547502    4.91259801130767    2.09829042183075
C         4.47382946359258    6.03435228003185    8.06327368219196
H         3.58702253221961    5.84683990905349    7.45281129621524
H         4.62814033079050    7.11430951757659    8.10145622093055
C         5.69232197131966    5.33943160786342    7.45292675779450
H         5.52469267114662    4.25658992028787    7.51309404474029
C         6.85147405968601    4.86222233593104    5.34681688622848
H         6.83680533002415    3.84992505338276    5.76538388292275
H         7.85568195671417    5.27952495946101    5.50800248099785
C         2.75203924048283    7.27149669164008    3.77726230953400
C         6.10517351407260    4.62234341448956    1.17878576214553
H         5.87751227892509    4.59893344440550    0.12521106713242
C         4.33448376458451    8.99007069933687    5.19258413308051
H         4.98838298003125    9.64601422209425    5.74442894790151
C         1.81593358831528    3.92083823883130    2.36046850596454
H         1.17621998288394    3.80821312707721    3.24492347416204
C         3.72082019667181    5.31299269937501    1.63460741035950
H         3.77224846447322    6.38365031798161    1.39960950371356
H         3.49341242401088    4.79206418254808    0.70129612151365
C         5.89403084729276    7.07373692213469    5.70720175276928
H         6.67848222892000    7.24520722701655    4.95930699126320
H         6.16349741034013    7.65641053961014    6.59154593417010
C         6.61147758860012    4.74219599176975    3.86024894412510
C         1.93318497629575    6.29127868376025    2.97094061223348
H         1.07122794213105    6.00137312782352    3.58184960816981
H         1.55465672045942    6.80351854049357    2.07489027805868
C         7.65352143772551    4.45718848473884    2.98733872770287
H         8.64950430887917    4.30244640500282    3.37004487550818
C         6.72405391117139    5.16494164221431    9.71873387052674
H         6.60834540761593    4.07908950615474    9.70884864583533
H         7.60338270381319    5.39957879602413   10.31994558108265
C         2.42591521848770    8.62124075862407    3.80844692121973
H         1.56653054811300    8.97995227592825    3.26515501003446
C         6.93579496067900    5.66271348332678    8.28848727481097
H         7.81942804010839    5.17985020081505    7.86750140152716
H         7.11647157375904    6.73938555092499    8.31094272865778
C         2.63843086916655    2.63935598121763    2.21443747321971
H         3.32720202917265    2.53518622634693    3.05628049502591
H         3.23396000349758    2.66874446117269    1.30010717923326
C         0.89892642420931    4.07993856610911    1.14273699227615
H         0.30409923888188    4.99128185891008    1.22485748873187
H         1.48519637294160    4.13995515312807    0.22348957441988
C         5.48441956304162    5.79996651968544   10.34099807995479
H         5.63195506740169    6.87881587524390   10.42790816362339
H         5.33377693281913    5.40345316262246   11.34523093322138
C         7.38994868461429    4.36968882731238    1.63127312059139
H         8.17736933033466    4.12751429580237    0.93509448393177
C         4.25195816024728    5.52327552567127    9.48513579090397
H         4.05320038746528    4.44992441473807    9.46422897356136
H         3.37940341382346    6.01395223254287    9.91767222269343
C         3.21280052025264    9.48651704927473    4.54867827573506
H         2.96739705914965   10.53519043539030    4.60727443213424
C         1.70247094796405    1.43450303627244    2.14787633747272
H         2.28938753306516    0.52041926629759    2.05130476649227
H         1.12669836403640    1.36356062309846    3.07280523941680
C        -0.03837769045006    2.87490448479750    1.05570307108390
H        -0.68657232777411    2.97984587607308    0.18464651357155
H        -0.67496460405847    2.84869488369462    1.94259853886113
C         0.75246941757635    1.57378035328540    0.96209402556189
H         0.06506673343106    0.72808746284250    0.93812825983272
H         1.32671643730801    1.56206210896692    0.03292594374911

