37
CSD_code = CUHVAC | q = 0 | S = 0 | Stoichiometry = C19H14O3Ru | MND = 7
Ru        2.12741895141649    0.18713600836893    2.34230186897587
O        -0.71853627624857    0.07899923643321    1.32503583504135
O         1.56759993646887   -1.99732531026052    4.35729491071519
O         3.43283110471608   -1.52935523821175    0.19475688924294
C         0.34116126250646    0.15307553267120    1.75117346197857
C         1.75492885403003   -1.13486384374127    3.62865328140851
C         2.95797170742415   -0.86822290623715    0.99744100238891
C         6.06985809493802   -0.52208950386211    3.95490017747921
C         6.77470304968388   -1.29674116305203    4.85487167134803
C         6.21731473026146   -1.62007572646997    6.08067286371241
C         4.94817699424889   -1.16303912198252    6.39346950266896
C         4.24075370005853   -0.39024401018854    5.49299512996676
C         4.78958120327466   -0.05161133138253    4.25419308526765
C         4.07216899486966    0.76363945355515    3.25652058034217
C         3.06188777114247    1.69918353167025    3.68699844456024
C         2.31888456347824    2.37803758605274    2.70507400587769
C         2.60505009716421    2.10471951178294    1.31767162913300
C         1.77112883796175    2.71556808563421    0.26585373905250
C         0.43919924560685    3.08143175674654    0.47238784913668
C        -0.30472515546631    3.64991706348222   -0.54339730710126
C         0.25858092273178    3.86426044214575   -1.79010935692786
C         1.57652414334143    3.50236894826600   -2.01331073627714
C         2.32210336417689    2.93626593001895   -0.99810088421508
H         6.51168002701581   -0.27967219903003    2.99787861423837
H         7.76283714373954   -1.65064056793558    4.59949471968222
H         6.76560803482227   -2.22707225081477    6.78528967889372
H         4.50361244685932   -1.41346776189813    7.34566965128595
H         3.24593713620982   -0.05915469362544    5.75854849926460
H         4.75915664049153    1.12939290952829    2.48696588267914
H         2.88874831214918    1.90303712438826    4.74171885084354
H         1.56802039787715    3.10986719578319    2.99599839945853
H         3.66298942206448    2.13092380875184    1.03836687924184
H        -0.03076718165466    2.91262836066851    1.43183973758892
H        -1.33349591453223    3.92473663016135   -0.36133066759839
H        -0.32658796598041    4.30630034273421   -2.58241577277183
H         2.02476536817460    3.66228075880276   -2.98305172704953
H         3.34913003498151    2.65250541104875   -1.18402038953242

