96
CSD_code = CUHVOR | q = 0 | S = 0 | Stoichiometry = C43H48N4Ti | MND = 9
C        -0.47886989600015   11.90552151865277   10.47865379899584
H         0.13708791263863   12.60775864324429    9.89839396847365
H        -0.18368559213857   11.97768620054532   11.52842606186502
C        -1.97508221893398   12.19712142807888   10.25879486272983
H        -2.54954678200987   11.87403724957172   11.12908074982506
H        -2.16810779408110   13.25378386303406   10.08583424117042
C        -2.31039634376813   11.32429636023560    9.04636980721672
H        -3.32485318719304   10.92657825638732    9.05191076581362
H        -2.14930969422592   11.88941461918889    8.12486611018247
C        -1.25340449549430   10.24138526154597    9.16507602798988
C        -1.98845520601104    8.50519206014992    7.63659134498137
C        -2.04581184173844    7.11209825051480    7.52481841160958
H        -1.46177899361029    6.51894475634208    8.21668987752182
C        -2.81344156950042    6.49539396990008    6.55123067601581
C        -3.53839782423838    7.28031438788238    5.66605703603356
H        -4.14492384523719    6.81275487292107    4.90381183109221
C        -3.47895905022185    8.66684442081664    5.73460194181412
C        -2.70487424066061    9.27194354429437    6.71069522663186
H        -2.63643855981554   10.34758889514286    6.72753883736175
C        -2.85037942784321    4.99768967733652    6.47059704106166
H        -3.27718776262368    4.57879904108833    7.38150140360761
H        -1.84277163557675    4.59949537309847    6.35997767701046
H        -3.44913444280417    4.66753771349880    5.62580421316267
C        -4.23744373655315    9.49566535362156    4.74039059974783
H        -4.20632330176527   10.55022631440073    5.00298142531560
H        -5.27764594936056    9.17747894452420    4.69266188213982
H        -3.80723836795957    9.37563063571362    3.74635096187341
C         2.29044073911402    8.64342357433107    7.71966224657442
C         1.25412568479797    7.56401960663671    7.85563678532756
H         1.70904983671136    6.56983833243720    7.91598580344368
H         0.58156599351627    7.59199119040729    6.98732144331355
C         3.32415240322404    8.84394615309052    6.86876966470800
H         3.91559274885876    9.74191698671157    7.02839229468049
C         3.78736971773889    8.01608873228859    5.78145785462306
C         5.01067286977886    8.33818589889632    5.17738511321413
H         5.56157312579754    9.19715264965630    5.53619701054131
C         5.52459496391083    7.58340195760532    4.14419266692363
H         6.47281527769538    7.85398213466376    3.70061554449312
C         4.82966660276559    6.48096310805842    3.67246813012663
H         5.22997947691204    5.88752998808692    2.86336273023855
C         3.61246055429964    6.15408488733405    4.24682132704389
H         3.05731456325648    5.30175893536335    3.87924199926419
C         3.09596575058679    6.90628399090002    5.28343964434583
H         2.13941938560821    6.63925419207375    5.70046582034732
C         1.97478036616221   11.72051033057854    7.90840177137046
C         0.89636285663619   11.40459238067407    7.07059710311522
H         0.44093923813584   10.42215817548413    7.12465248122330
C         0.41947462721053   12.33087839048524    6.16489389478168
H        -0.41569616746996   12.06705659106966    5.53102057731650
C         1.00394260910672   13.58184428802224    6.05343632327942
H         0.62335265331127   14.30423341464769    5.34755424319687
C         2.10277372008066   13.88229279967092    6.84184620758615
H         2.59318464556742   14.83986046383056    6.74110157009782
C         2.59207936814830   12.96702531329911    7.75188398603780
H         3.47124587347107   13.20853153473259    8.32934625386431
C         3.34788956567750   11.04829105315204    9.84509440187673
C         3.28395479360456   12.20578973010237   10.62452183675639
H         2.51576808589530   12.93988607844616   10.43453480657347
C         4.18970234907401   12.40501421006435   11.64851168859798
H         4.12922895319380   13.30463301519801   12.24403495864794
C         5.16441229408136   11.45950090292416   11.92384307433843
H         5.87052209821119   11.62347968045953   12.72367229813337
C         5.22143504412425   10.30017830088008   11.16668328875164
H         5.97915536349663    9.55760606175087   11.37366949379495
C         4.32223984149311   10.09025572942674   10.13968497602456
H         4.37262268622429    9.19226927172073    9.54009095251558
C         1.12609763451750    8.37855932866868   11.77292855090890
C        -0.29391423708523    8.27630408735010   11.75158571645714
C        -0.65147205927844    7.12229596564681   11.02118813985602
C         0.54185568879096    6.50488276677052   10.56414267283831
C         1.64907491740082    7.28269800087094   11.03904017604076
C         1.88850796308227    9.38628137264926   12.58581104757478
H         1.66248526491815   10.40660006415670   12.27126342363019
H         2.96239340979874    9.24100797916216   12.49237173051806
H         1.62376125673499    9.28864499624562   13.64141495975427
C         3.08715875572185    6.85282478956619   10.93919609335174
H         3.74336803605413    7.58030083435015   11.41207109822686
H         3.39948796492024    6.73317480311638    9.89907294810679
H         3.22429299310451    5.89448857528515   11.44640947239642
C         0.64409940983716    5.11267291377751   10.00535938240176
H         0.41901155932443    4.38710313447270   10.79195488427619
H         1.64977198717550    4.91087349672203    9.64324726175701
H        -0.05510369708738    4.94420968976257    9.18649381404898
C        -2.04639210189655    6.56777003812088   10.94754981613282
H        -2.42910865215946    6.40309605550112   11.95785181965209
H        -2.06260188891717    5.61472025890801   10.42367070638982
H        -2.73012063229551    7.25265296079114   10.44123807393363
C        -1.25966321564088    9.10568626097370   12.54496300684474
H        -2.14872846717595    9.34483904726269   11.95914873880383
H        -0.80104213666233   10.03254505490568   12.88176835595601
H        -1.58605432450527    8.54926120655405   13.42874322242891
N        -0.27824632826587   10.56377461918824    9.97101342427500
N        -1.17639632126789    9.02650523789866    8.62948038600571
N         1.94636413423036    9.48448346192528    8.74955279500254
N         2.44128808845525   10.78650540058572    8.81722658938841
Ti        0.52976828489646    8.58424595191667    9.55264264470163

