93
CSD_code = CUHVUX | q = 0 | S = 0 | Stoichiometry = C41H45N5STi | MND = 9
C         5.22642323235141    3.39134528830826    4.12059248728808
H         5.51651503633366    4.20021730454217    3.43703825489995
H         5.50336631744272    2.43742899700338    3.66264649276975
C         5.88238534462428    3.59575832048384    5.50204627182411
H         6.07150508700810    2.62787619083142    5.97025758132994
H         6.82347957403542    4.13578418616057    5.42763192301095
C         4.81899306286417    4.36310520621052    6.29221439208997
H         4.78656245241705    4.09938941052744    7.34669595563587
H         4.96115312220592    5.44447438478254    6.21313428766163
C         3.56337363179135    3.99332049903970    5.53048862428780
C         1.83564440899903    4.69289445556654    7.04636003716444
C         0.94370480172916    5.76173008367019    7.09566900668259
H         0.63522454182502    6.23152413588983    6.17082490176530
C         0.43773294644448    6.20894205164214    8.30699751861941
C         0.83882769085110    5.58191207827473    9.47813727175985
H         0.45175085530799    5.92375394054858   10.42757687292058
C         1.72422318884802    4.51042618676660    9.45375926371670
C         2.21646496265016    4.06913749198994    8.23744518462706
H         2.88076967592925    3.21556752734960    8.20433882122098
C        -0.50908692835291    7.36978867513971    8.33725445387791
H        -1.13193579556352    7.34270167430498    9.22812579704037
H        -1.14519681300844    7.36547079022760    7.45538612573777
H         0.05038720284285    8.30570178749154    8.34310765213189
C         2.12380202604200    3.84042121648045   10.73495627366547
H         2.58845064588695    4.55858184175572   11.40939542784539
H         2.82609358322785    3.03058807159124   10.55274240960849
H         1.24759390055943    3.43259827991042   11.23753057689407
C         1.13178180537513    5.73696774402486    2.66015952985998
C         0.30377207688872    7.83507885453475    1.99128993678698
C        -0.20026226073183    8.39057495859390    0.81427016438571
H         0.03194515001863    7.91467245245105   -0.12684623273565
C        -0.99236796132838    9.51936480699049    0.86320374688575
H        -1.38630518057209    9.93701184643013   -0.05283623192698
C        -1.28238988488272   10.12091835322897    2.07772338025758
H        -1.90107784134946   11.00595038000081    2.11138516695019
C        -0.76858520490325    9.58542540357456    3.24727689236955
H        -0.98402333953289   10.05615441697206    4.19646289630806
C         0.01857414821672    8.45231276586785    3.21080195290151
H         0.43246203686934    8.03930866748468    4.11961871743571
C         4.03230828061890    6.09678086761416    2.33626272406282
C         4.98210081650012    6.66425802808068    1.48202546103830
H         5.09311877739456    6.28765557925947    0.47713609462292
C         5.75815040911204    7.72487790876650    1.90471351316111
H         6.48509003121595    8.14949938991221    1.22764105710812
C         5.60413787046215    8.25527706569299    3.17485922091589
H         6.21389727556460    9.08451556565069    3.49933182293629
C         4.64030178974830    7.72259580107108    4.01465842938099
H         4.48913568255203    8.14332840782453    4.99897860325286
C         3.85917913975891    6.65977665100942    3.60706583879694
H         3.09846403663052    6.26873068169974    4.27704327593040
C         3.42192000320969    4.30608130355577    0.75338345131279
C         2.30552425907667    4.03473809054009   -0.03989530227116
H         1.34730850634276    4.44419309330060    0.24781594748572
C         2.43497333378456    3.28459230989367   -1.19275849631314
H         1.56598503504530    3.09158672861478   -1.80569511363769
C         3.67271493338452    2.79087053004465   -1.57277081744261
H         3.77200701246866    2.20656363686331   -2.47494107268081
C         4.78342393944931    3.05464856568182   -0.78751460505909
H         5.75055481600668    2.66877684576231   -1.07574513902676
C         4.66546249437938    3.80019063740249    0.36983630390905
H         5.53368748206361    3.98658321345109    0.98414574984768
C         1.95042960797270    1.28538187544211    4.46087000816779
C         1.69682682657067    1.51721228885290    3.07326384049658
C         0.39819781227739    2.07998415810471    2.95929736335801
C        -0.14323578556633    2.19576527141289    4.28053961048113
C         0.81682023295402    1.70183774543420    5.19743416087246
C         3.12812529650652    0.54496285039802    5.02213277243072
H         3.49999943232065    1.01662363134038    5.93314510678704
H         3.94040626082215    0.50123156856707    4.30009056954083
H         2.83746394034380   -0.47935419704585    5.27037820821216
C         2.60511253993997    1.08204690642735    1.95857446811556
H         2.71991256452448   -0.00439226558286    1.97408232482914
H         3.59524707896206    1.53188757199687    2.05507212968961
H         2.20335436367993    1.36650471310780    0.98822718633815
C        -0.38388909257286    2.35363059735823    1.70587834470005
H         0.23537834351272    2.23135898666796    0.81921759229548
H        -0.78834938966917    3.36960198354022    1.71284627982422
H        -1.22506273968800    1.65977289749644    1.63560660199024
C        -1.56184681249881    2.53599891373603    4.62328675637593
H        -2.14714293089782    1.61760620640697    4.71987471103660
H        -2.01556445279107    3.15489577569809    3.85192069436922
H        -1.61562668933100    3.07668693335822    5.56826394252032
C         0.56976275163529    1.49093880118724    6.66262091931443
H        -0.12938836976103    0.66288478232193    6.80398931495861
H         0.13457289131414    2.37863771086610    7.12425841937660
H         1.49192190398013    1.24538805599285    7.18542246071727
N         3.79887207565391    3.44950234099197    4.36423359890614
N         2.29193707552975    4.24198582545209    5.80598885303646
N         2.07564104751598    4.76049744353660    2.64541703259100
N         3.25953489297828    5.01137742680102    1.94960016913371
N         1.14675932572585    6.75135302775402    1.89938276359497
S        -0.05698433249321    5.24177269718515    3.88908053232337
Ti        1.68723710641130    3.58271584686311    4.04426253072580

