29
CSD_code = CUHWIL | q = 0 | S = 0 | Stoichiometry = C14H10O4Ru | MND = 7
Ru        4.27894860667466    4.72664407350137    7.44060277845183
O         2.62697038392259    6.69779509794676    9.04256711045484
O         4.57659698647948    2.89106708010831    9.81883424872348
O         7.03209062034355    6.00181417069966    7.68984617709904
C         3.21303330333569    5.93061644109648    8.43396512994902
C         4.42518461953251    3.57407281052573    8.91565187125119
C         6.00788756983849    5.51274215198381    7.58585469117559
O         3.60598588046336    7.94537620597350    4.90553332462705
C         3.13826929397287    6.97245734067893    5.44631879561937
C         3.76047029319418    5.65136074671188    5.50292821384794
C         2.89588308413111    4.51013550663084    5.74904420341753
C         3.50115590393547    3.25795923538506    5.94370263483030
C         4.93984531337531    3.19691219037725    5.95649264781136
C         5.62079128129886    1.93857771896556    6.31437049666426
C         5.04231348396851    0.97482483091717    7.14310985274462
C         5.72046747870416   -0.18757993404292    7.45578841017043
C         6.99128145108719   -0.41429722141589    6.95430640405527
C         7.58108786623820    0.53417605807585    6.13545751515159
C         6.90370791331364    1.69556509416493    5.81967935171140
H         2.14944050968822    7.03360100198312    5.95936359335995
H         4.54083724534220    5.54828920287871    4.74287305821866
H         1.81173402575225    4.60889653839325    5.70797061295071
H         2.89171937293817    2.36942271538088    6.09491741566325
H         5.44620727586034    3.69445808632095    5.12463105549868
H         4.05652436237057    1.13249269304919    7.55946648803160
H         5.25493552425003   -0.92013424909797    8.09858923767134
H         7.51939181358893   -1.32215746493161    7.20350243861670
H         8.57299823953431    0.36806042403990    5.74203320070300
H         7.37424029686572    2.43295145369849    5.18399904153143

