81
CSD_code = CUHWEI | q = 0 | S = 0 | Stoichiometry = C27H45N7SiTi | MND = 10
C         0.97452918372489    3.93629967328165    1.23085276916385
H         1.41530462542788    4.93626749657615    1.26863726803379
H         0.09807933179986    3.93503487995882    1.89631120450929
C         0.58225358501386    3.51852127426209   -0.20363850943537
H         1.15899781522481    4.09680850617987   -0.92671456557745
H        -0.47490314688053    3.68772725519220   -0.39873726635884
C         0.96811908136155    2.03644334546355   -0.28903263475956
H         0.10883995755062    1.37140772702423   -0.17045832163775
H         1.44690127002762    1.79889912751218   -1.23598795400715
C         1.89245287335538    1.87775181197794    0.90767726810958
C         2.74499394467001   -0.38008531572564    0.76835229101229
C         2.89205797253950   -1.48896339596295    1.61410877288317
H         2.85983872271681   -1.31925252115121    2.68319850945313
C         3.09881884584673   -2.75804348429115    1.10796421402448
C         3.17166360545467   -2.93431156826673   -0.26947659703144
H         3.33335403169416   -3.92286001017319   -0.67507477002260
C         3.05756383614041   -1.85176117040160   -1.13024798023177
C         2.84525933631444   -0.58406015012914   -0.61110279437616
H         2.79257648249629    0.25375739619944   -1.28912933107504
C         3.26041670887895   -3.93101066482420    2.02889533832186
H         2.61052864442551   -4.75001330325796    1.72465457187861
H         3.02405903048983   -3.65363589602656    3.05281384576907
H         4.28774936857356   -4.29390682517426    1.99768023404437
C         3.15460793117457   -2.06090017164660   -2.61321221628573
H         4.01720021370435   -2.67833049166682   -2.85773025233697
H         3.24321644863656   -1.11290253084983   -3.13850994082342
H         2.26455929848470   -2.57351336878660   -2.97875442329809
C         0.25560802197000    1.80286984685492    4.81097841689268
H        -0.36223042099770    1.07019243456429    5.34165261535552
H        -0.39725938499640    2.53287238627871    4.32763516767449
H         0.89158412295482    2.31301551906778    5.53166923662557
C         0.21544326102445    0.24285496643082    3.03684489700095
H         0.80166417627407   -0.38220304117622    2.36871193864750
H        -0.49065831189374    0.83763207473479    2.45324208825101
H        -0.34938738445358   -0.40874407434008    3.71340516869313
C         3.74146711395169   -1.67805013240814    5.58502572829412
H         4.29767736903781   -1.59209347991226    4.65960206198650
H         3.36172823649692   -2.69278483864377    5.64782634233064
H         4.43800421413806   -1.54721639390802    6.40501445918375
C         0.75995030137809   -1.53325732397491    5.96039359346387
H        -0.15110647366244   -0.97795289171683    6.16288848223078
H         0.93405593495090   -2.17438616871388    6.81975701368057
H         0.57354312884989   -2.18242841493148    5.10927676278593
C         2.46845955495909    0.67341402177652    7.27117717712396
H         2.86424393957751    1.65595637531914    7.01918702824895
H         3.13211444344801    0.22523773043039    8.00419448507928
H         1.50949039263282    0.82387241993367    7.75934227301557
C         4.97312106622359    3.07430851258881    3.88720007408631
C         4.79139407491448    3.37543433044056    2.51537187474674
C         4.96030883372504    2.17519542445172    1.78049469454502
C         5.21116099384422    1.11982250632590    2.69827807602251
C         5.19817212733421    1.67451502317922    4.00978323378293
C         5.14949698177815    4.05850711498608    5.00685798080889
H         6.21655744724673    4.20245689023411    5.19954333995128
H         4.68689870165179    3.69770352895311    5.92565805570253
H         4.72053264963297    5.02739658998156    4.75898908265390
C         4.65816082041196    4.74886913868990    1.92298703565065
H         4.06637362351204    5.40388097212724    2.56131155773197
H         4.18425543750328    4.70546430172551    0.94352913228204
H         5.64565049840951    5.20226817456907    1.79977384431239
C         5.09182512096101    2.11112101436066    0.28657450344082
H         4.30570658833600    2.68399634532690   -0.20839144794381
H         5.04952646153625    1.08522763054050   -0.07333711010150
H         6.05270485053979    2.53668842933928   -0.01578413178334
C         5.76573618300746   -0.22684090856005    2.33064248270970
H         6.85759566571307   -0.16768945079955    2.28846171265575
H         5.41063121957504   -0.55743852530854    1.35746659069432
H         5.50102456875267   -0.98786785584761    3.06087753420747
C         5.73827113488254    1.04285108672300    5.26145876656448
H         6.63684847461911    1.58045512043816    5.57530663227398
H         6.01036608258955    0.00604453152521    5.09055963009138
H         5.02016023431403    1.08429849078332    6.07847938587103
N         1.91987673578532    2.93752376538200    1.67965162976312
N         2.56348182200193    0.84671775066046    1.37702892360627
N         1.08520616851388    1.14724447277427    3.79451540327084
N         2.27306539514720    0.56477097611246    4.26496997099537
N         2.44287936621114    3.37044853792220    4.32798619846761
N         2.04674786129310    4.45467059367312    4.14689907679065
N         1.66014041605032    5.51999785584662    4.05711746657932
Si        2.30560979734438   -0.41481358418064    5.68817951148580
Ti        2.99768136212962    1.93190257406884    3.16299562157057

