18
CSD_code = CUHXIN | q = -1 | S = 0 | Stoichiometry = C6H7Br3NPt(1-) | MND = 4
Pt       18.37969233594476    5.47672941146080    8.30759659449343
Br       19.18725370730675    6.32709496701360   10.37988199464421
Br       20.34583857661885    6.22932282863005    7.05364718776153
Br       16.22811351647377    4.77903369320462    9.25076574021322
N        17.63827007339695    4.66661503832009    6.38257189416515
H        16.62697592355673    4.78128637504135    6.43819297176758
H        18.06161724843883    5.27383319095146    5.68175516837737
C        17.60070867291268    0.97901140042551    6.59557101025668
H        16.95782892995163    0.19530599326270    6.97002930988549
C        18.02440850957316    3.31676117145866    6.23695271565147
C        18.81705171999179    0.66211486344820    6.01368347480534
H        19.12824639098916   -0.36962426082373    5.93271873057832
C        19.63586860232035    1.67525539060186    5.54280257100536
H        20.58891711715573    1.43746785327446    5.09246150320015
C        19.24458079740851    2.99618189920434    5.64523143422195
H        19.89305816290384    3.78618742566462    5.29530618397633
C        17.19845408975302    2.29623357322397    6.70372005601821
H        16.25851562530157    2.54268918563789    7.17581145897721

