38
CSD_code = CUHXUY | q = 0 | S = 0 | Stoichiometry = C12H13Br2N4O6Tc | MND = 6
Tc        5.63792552963160    3.61323384060863    0.86512240262485
Br        4.41655334694897    5.19823903096298    2.48228727665026
Br        6.67105363181537    1.97100428849220   -0.79518988323181
O         4.07871207775863    3.00010470448140    0.42858563924294
O         7.08335681343190    4.22447502461035    1.29269374789159
O         5.69693640727716   -1.76103081198532    5.34462301279075
O         6.74708767386328   -0.31200703145688    6.54214049518839
O         4.61991995058580    7.72500318243847   -4.70543506458246
O         5.71790187897652    9.10172385517596   -3.46611261312695
N         5.80486676701314    2.14966521856413    2.43637336824781
N         5.48278238773685    5.09376541409460   -0.69346058655638
N         6.17707515906003   -0.66956819441120    5.53973085636534
N         5.20793222368449    8.03169463054530   -3.69543194414386
C         6.36163833795687    2.49584277581896    3.59921434846295
C         6.50726434125326    1.60522211165367    4.64554133096015
C         6.05292211285653    0.30541994046415    4.46614550413019
C         5.48210654115352   -0.06372047852097    3.25548572828865
C         5.38141184596534    0.89637474175173    2.26747470889723
C         5.95843225105060    6.32279361521970   -0.48064738159381
C         5.89375172002405    7.31881404413514   -1.43604480743181
C         5.30799312578202    7.01570208621423   -2.65801832740800
C         4.81985959997401    5.73665132672387   -2.88941491260817
C         4.93258638250313    4.80663411705568   -1.87426465555718
C         2.79268049316315    2.64813312620971    0.13211279340812
C         2.70984980077920    1.31305906288898   -0.61301886767035
H         6.69810085435575    3.52006218254785    3.69032995756198
H         6.95573397613698    1.90490878138547    5.57973007005599
H         5.13807141197594   -1.07396243511353    3.09768747947844
H         4.96794981943521    0.64409571032357    1.30070805640813
H         6.40233685025141    6.50933554288704    0.48821185918435
H         6.28025417825514    8.30742194539032   -1.24392451565571
H         4.37500115332780    5.48359806339725   -3.83909892482114
H         4.58873050300212    3.79255013768053   -2.02523214911410
H         2.21596122515040    2.59900980273408    1.07007382473950
H         2.35013441822754    3.44624453374123   -0.48712931842131
H         3.39479993071512    1.30821777270459   -1.45938461625698
H         1.69697290880599    1.16322443287731   -0.97410122125382
H         2.97005237011297    0.48596390772644    0.04403732885354

