23
CSD_code = CUHXOT | q = 0 | S = 0 | Stoichiometry = C8H11Br2NPt | MND = 5
Pt        8.53394980200124    5.28120618116729    5.06803152329176
Br       10.42248272128508    3.82888892215725    5.68680818499742
Br        6.58552996617998    6.74421464239783    4.76507597449984
N         7.33034141666651    4.07061726766282    6.27993551831124
H         7.93563228418334    3.55975208515229    6.93023580969244
H         6.65983556455750    4.65035104660890    6.79329852097904
C         9.86763403601991    6.81538508313886    4.37630651089788
H         9.39808116902476    7.78488399383276    4.51907164845850
H        10.83440389752669    6.68984283886934    4.85616966529849
C         9.50971906324032    6.01612520099120    3.30513651487639
H        10.19353079838745    5.25438712377635    2.93655883058995
H         8.75520622328594    6.35303323790849    2.59744590731861
C         6.64937721941745    3.17350056387477    5.38866804339224
C         7.30182023921755    2.03746184538217    4.91691350478544
H         8.31052004829396    1.81789410137260    5.23460831355714
C         6.65319021668763    1.19048725422226    4.03670424290433
H         7.16553311538080    0.31457694669656    3.66978802637594
C         5.35726802294577    1.46216939013210    3.63087351989806
H         4.85642143320637    0.79973877730937    2.94193640913563
C         4.70386126458957    2.58347521201629    4.11402635341799
H         3.69182677446114    2.79768731254833    3.80737003497205
C         5.34094155287733    3.43713880078112    4.99609763719561
H         4.82899317056290    4.31328217200075    5.36583930515411

