23
CSD_code = CUHXUZ | q = 0 | S = 0 | Stoichiometry = C8H11Br2NPt | MND = 5
Pt        1.27128439828322    1.02053086880550   12.22867514175674
Br        0.36619408402312    3.20956442523002   12.53542443064641
Br        2.60583928112807    1.30663579024185   14.16522761412700
N         2.22739806899370   -1.00682547609775   12.14507378508450
H         3.19904895383138   -0.74321238517463   12.32111538260146
H         1.85316664322258   -1.43659353445242   12.99291720682641
C         0.64171863436089    0.98475566498542   10.16083301186312
H         0.55534674170691    2.00506496434741    9.80339289926154
H         1.29773128312359    0.34203867187583    9.58289846243218
C        -0.35986250056714    0.43677165336294   10.93930876891785
H        -0.49636081673833   -0.63921311164737   10.97137276159056
H        -1.23457550670423    1.02587881319223   11.19357532201580
C         2.10732258336437   -1.86108821411056   11.01970443071376
C         2.97519126279659   -1.71247895059491    9.94213758507099
H         3.76028714936250   -0.97070664393906    9.98784494683079
C         2.82884032452095   -2.50903455991379    8.82171378478677
H         3.50649782459707   -2.38941484220775    7.99040718576472
C         1.81976189779260   -3.45663758201887    8.76657073790308
H         1.70748660128197   -4.07624684826297    7.89076190497090
C         0.95895843079148   -3.61025594066182    9.84030317457055
H         0.17547233487602   -4.35164223332447    9.80537680136681
C         1.09993942803608   -2.81833769271593   10.96564883066745
H         0.43291289791862   -2.94405283691899   11.80731583023104

