104
CSD_code = CUJDUG | q = 0 | S = 0 | Stoichiometry = C44H55N2S2V | MND = 9
V         4.26730816733776    5.68240177327179    2.89281707860583
C         6.00274475740699    7.26342228837449    0.76119888038110
S         2.48490998327678    7.11949171914926    2.29149094648609
C         6.89116960839101    6.27898838943598    0.33224330337176
S         4.66388225120360    3.92348240156185    1.33527841968034
C         8.08684386286733    6.63601882661359   -0.26249227406507
N         4.82388465478389    6.94911156340723    1.42827945652436
C         8.42391541636175    7.96897345961964   -0.42588645109642
N         2.83655436082054    4.23436964762294    3.01024906383692
C         7.55539275124618    8.95192733549154    0.02039774754744
C         4.87861970989228    7.00179489470701    4.55744810663863
C         6.35861459879948    8.60723598796856    0.61386115415883
C         4.30318768134848    5.79088911557755    5.02906426307429
C         3.64294159102084    7.32382654176022    1.05430969042375
C         5.14334550265858    4.72764194813074    4.59197320021361
C         2.14253119462751    2.71592349257118    1.13824080878143
C         6.25123233657880    5.29994155703270    3.90018828188985
C         2.21988928425344    1.29593825883294    1.67334722982195
C         6.10935978053489    6.70001171495925    3.91849400767866
C         0.99010800689822    0.90232571314872    2.04705752101205
C         4.39106772966506    8.37747036665850    4.88446186351810
C         0.03816971842912    1.99354034136694    1.84022478301310
C         3.20520993319956    5.73257254319280    6.04460833664888
C         0.68380055592736    3.06304047314589    1.34369931689759
C         5.09687609392108    3.29309402689335    5.01633804954872
C         2.47708438981587    2.72379188115653   -0.35863416734582
C         7.43795498956324    4.52621158052514    3.42287490999679
C         3.50133165688532    0.53645579810490    1.68283414125734
C         7.16604285160585    7.70176667004486    3.58243313456995
C         0.58201878496937   -0.41999952389309    2.59997973139022
C         3.24954224965778    7.87044410261078   -0.29963572387892
C        -1.40804293339414    1.85908095682081    2.17158151416403
C         3.38737931793672    9.38425214363160   -0.32822876472257
C         0.14213649630542    4.38975906051138    0.94057398032928
C         4.19683411555722    9.72856549420037   -1.34495040872230
C         1.75363626581213    3.93605644712425    3.83690629626029
C         4.67941637779058    8.52459860302392   -2.02182855069120
C         0.75349118175165    4.86445296488557    4.11932447785753
C         4.17093209968862    7.43612700269335   -1.41867985512148
C        -0.26903809362036    4.54060492712639    4.99088584728753
C         1.80531803620951    7.48258370827634   -0.64251555449552
C        -0.30604862411202    3.30089657924208    5.60559232700917
C         2.64886166325565   10.25061712078297    0.63159828180478
C         0.69442839815974    2.37972172751057    5.34275061917721
C         4.59637681454558   11.09855618214116   -1.77524408816327
C         1.71641495351459    2.68967575617720    4.46818306846902
C         5.60941799636282    8.58349154449436   -3.18405417679770
C         3.08526645824891    3.61815739729619    1.90067674843397
C         4.34188018685241    5.99956711918239   -1.77211115860834
H         3.31248491011289    8.38013594861152    5.03254970660703
H         5.30242199348307    5.82968737598673   -2.25247783009326
H         4.86565213125994    8.73549751440556    5.80176226240577
H         3.55648443378084    5.67653746400858   -2.45939266074134
H         4.63117235866692    9.07758856071322    4.08414145461334
H         6.63712204659302    5.23754509066350    0.46035515282666
H         2.86626227794583    4.71350233616774    6.21343119882041
H         8.76346283822715    5.86391183983798   -0.59977804595681
H         3.57034391560537    6.13426907075721    6.99345986214125
H         9.36026615900714    8.24106782396495   -0.89046539307529
H         2.34869910577383    6.32924134290452    5.73294953177862
H         7.81672330630899    9.99514826462934   -0.08654151413385
H         5.15155199147746    2.62790966123018    4.15255059126017
H         5.68647050124614    9.37212296512036    0.97464362918733
H         4.18630780320003    3.07511602728141    5.56927756360341
H         1.80560690805437    2.04638705097396   -0.88170689870282
H         5.95166734804379    3.07227197913582    5.66027218084618
H         2.35766351660634    3.72590593507700   -0.76603303206082
H         8.05085896531138    4.22460628777531    4.27607984478038
H         3.50397251054060    2.40426843079988   -0.51843661961708
H         8.05230041962166    5.12174148502050    2.75142116428903
H         4.34805165570765    1.22013632157627    1.72338679614556
H         7.12392627166314    3.62418896352421    2.89807364484883
H         3.55183737543494   -0.13741233963167    2.53656516527560
H         7.75142087535658    7.90151661039777    4.48437114705636
H         3.59937708214088   -0.06291630709026    0.77592833975780
H         7.84376958282704    7.33898134858685    2.81354794483142
H         1.43885674575117   -1.07854051946263    2.71220894681295
H         6.73656030583326    8.64381125808634    3.24950039906846
H        -0.13811238171544   -0.90003757115466    1.93788350933199
H         1.52647138884760    7.93591820714319   -1.59131765227628
H         0.10611105814770   -0.28927817088973    3.57137483057843
H         1.12615646194100    7.82874742622020    0.13298963765768
H        -1.52837491347461    1.63140202383714    3.23033059698982
H         1.71819415763781    6.40133461124051   -0.72899498470094
H        -1.85419192085059    1.04636939516435    1.59884137830645
H         1.66695493320342   10.51309117002261    0.23362740404788
H        -1.94709695698023    2.77568847689138    1.95060911849546
H         3.19112534287529   11.17469165601076    0.82356484749474
H         0.85581734273443    5.18062174231426    1.17338433633182
H         2.49582816239164    9.72930254990277    1.57566449395507
H        -0.78809349989188    4.60477131448039    1.46013272669058
H         4.17854277379621   11.85457107789803   -1.11607850919439
H        -0.05465646405812    4.41451371441151   -0.13368753051970
H         4.24551849746487   11.29324014724216   -2.78843621947287
H         0.77886754720971    5.83663777916691    3.65076550131540
H         5.68215380287708   11.19008698389232   -1.77539025809507
H        -1.04416322813196    5.26556450229365    5.19312130976165
H         6.54741564949062    9.05252919700989   -2.88693118571883
H        -1.10630975116599    3.05461612980265    6.28799150130071
H         5.82436359950733    7.58848832066643   -3.56261489155002
H         0.68175434647136    1.41279251281715    5.82579979137853
H         5.17571394822769    9.17671640007425   -3.98848188317253
H         2.49423744335443    1.96976797681263    4.26325763350402
H         4.29088215970374    5.37365501161746   -0.88075544898547

