40
CSD_code = CUJFUI | q = 0 | S = 0 | Stoichiometry = C10H21ClN2O4PRh | MND = 5
Rh        3.24234117103260    1.51390816271756   -0.11862683647795
Cl        4.75567565829109    0.86573021702250    1.49258710465405
C         2.25067104939327    2.15898543755421    1.26467924449907
O         1.64687264033286    2.58225341006707    2.14248246286562
O         0.51669729997190    1.11900704348599   -2.03654999052145
C         0.82506308443700   -0.17560280247641   -2.50557350860549
C         1.26310162516629   -1.13466951224427   -1.39685643659728
N         2.58983881267614   -0.87958343654805   -0.84157681754034
C         3.66099497323526   -1.27532071478662   -1.75596546734411
C         4.91927240717558   -0.41991545355479   -1.56450002897910
N         4.68502747564684    1.02969777061781   -1.69290819497404
C         4.40198707036394    1.37822530353371   -3.09303094981044
C         3.63338060479978    2.69110204944124   -3.25267559312372
O         2.24398925894188    2.48163025773333   -3.11646660427556
P         1.69672282359326    2.13899432040347   -1.60271869486997
C         2.71886244794958   -1.60228906308368    0.42420511872271
C         5.92447987455868    1.72776572122469   -1.31190267637150
O         0.78929526604068    3.40075258934100   -1.25062943150441
C        -0.23441357191831    3.87038020837698   -2.12450234761568
H        -0.10451133664590   -0.55481322601255   -2.94275008262411
H         1.57391059653670   -0.10886261542172   -3.30155469733558
H         1.19104989430577   -2.16434238978443   -1.78836028383586
H         0.54246939539202   -1.02512803163940   -0.58342085190094
H         3.69947228799293   -1.41303008220179    0.85478438901949
H         2.58611469043109   -2.68500554307816    0.28243283212292
H         1.97043692568562   -1.23851315838122    1.12653971606552
H         3.94242192362905   -2.32829876750608   -1.59760584991429
H         3.30266443625070   -1.19532307351734   -2.78507667818719
H         5.68032784175322   -0.74573801747105   -2.29118509079143
H         5.30477276653532   -0.58500157865945   -0.55525116304052
H         6.18069659751434    1.48904832437571   -0.27974514762150
H         5.79092994839778    2.80626153628499   -1.39560687400415
H         6.75286129316987    1.42314333067401   -1.96688729060542
H         3.78836228286009    0.60321882403008   -3.55501775183639
H         5.34520492861761    1.43900394214979   -3.65571487121799
H         3.77889262908212    3.09146675819782   -4.26010293779089
H         3.97462983110234    3.43023046738450   -2.51873683200157
H        -0.47714164714380    4.88105722384725   -1.79844404836586
H        -1.11580579070954    3.23370792252139   -2.05003395861611
H         0.11558053275129    3.88436664510864   -3.15753287616318

