57
CSD_code = CUJFOC | q = 1 | S = 0 | Stoichiometry = C18H23ClMnN10O4(1+) | MND = 7
Mn        3.55009711815965    3.50228026804365    3.10234409451468
N         1.65730217577944    4.89154438545315    1.50804852483804
N         1.60892329604502    2.23841948911976    2.60014925803330
C         0.78760619574129    3.88912720253303    0.91067329768358
C         0.42055955667029    2.81923788736536    1.94366056721818
C         2.52486544245932    5.57693369560802    0.56997505822078
N         3.62470105337480    4.72029792904319    0.21269365589745
N         4.15006725980140    3.86050312552218    1.09375747423404
C         5.26053185091356    3.39196210492428    0.53330316806655
C         5.45428095798704    3.96331906239449   -0.72431085436701
C         4.39122305066596    4.81959957463494   -0.88768603997355
C         0.99602823773382    5.81793814708182    2.40199824174113
N         1.93071411074858    6.20619502683518    3.42563966499749
N         2.79554635763070    5.31730987217246    3.93425265211843
C         3.44695830464304    5.95241810095342    4.90247104890617
C         2.99605934086017    7.26751546125088    5.01641792246127
C         2.02567286402254    7.39316168998630    4.05101471520326
C         2.15176054792749    1.14976557372941    1.75397605203689
N         3.42407189300810    0.73789188729233    2.27791008769669
N         4.25862524158057    1.67137605530496    2.75339443176375
C         5.36164227452076    1.04516523132071    3.13280982073385
C         5.24240748165337   -0.32446846437337    2.87839042082176
C         3.98924526154531   -0.48357298640365    2.33054914660206
C         1.26238933134112    1.73216873372442    3.89227908995382
N         2.08331393894511    1.96695561200386    4.93132161303798
N         3.16760602902382    2.78970270082867    4.79302536223138
C         3.80694816451846    2.77276200860623    5.96696924597194
C         3.12485798759193    1.96542422127854    6.86969722288958
C         2.02577632774672    1.47224108475980    6.18794088294051
Cl        5.98937012543156    5.47295692832588    3.03623068337149
O         7.00130230220825    5.15763878159513    2.11511831468676
O         5.49773186990852    4.21543903137523    3.61747101007994
O         4.87470115672855    6.07228602766864    2.36516562300176
O         6.43090270374066    6.28563802851197    4.08849616238528
H         1.32806511377946    3.43371518999073    0.07920892231498
H        -0.13868990978250    4.32799629901356    0.51034350764291
H        -0.17390125201433    2.03640238874686    1.45616958514257
H        -0.19557556096294    3.26273731958465    2.72751481074815
H         2.00487440988495    5.87920583960110   -0.35443192027549
H         2.94575551020432    6.45799768334583    1.07130200685353
H         1.47403446764759    0.28190337513536    1.74492381180991
H         2.27750817432085    1.52355734715864    0.72895453303939
H         5.88769802062253    2.67959413087366    1.03237602547543
H         6.26301040619707    3.78338694307071   -1.39984867164219
H         4.13825534641270    5.47526997536654   -1.69595228612187
H         6.17336732813044    1.59965155545226    3.56473987502473
H         5.96772537533749   -1.08657632195323    3.07130658738702
H         3.48446278616396   -1.36368057000410    1.98696024758119
H         0.13515035241831    5.32126714118867    2.86560512902215
H         0.63917543366815    6.72794608634872    1.89317923536525
H         4.21884945838029    5.47524769305565    5.47226242904630
H         3.34590244746850    8.01360019782323    5.69761786542760
H         1.41254310684583    8.22830859463968    3.77840761323338
H         0.39140966938372    1.11432344595524    4.03276359849448
H         4.72256590982422    3.31552432272816    6.09304497130115
H         3.38932437026777    1.76527619289158    7.88695011457656
H         1.24719922512082    0.81091169154353    6.50485438854914

