70
CSD_code = CUJHOF | q = 0 | S = 0 | Stoichiometry = C22H41NO3P2Ru | MND = 6
Ru       -1.31728192030038    1.56525171606521    3.42630867221749
H        -1.29271832976491    1.64266125806851    1.88973016787247
H        -1.40857002489553    1.48764805830504    4.96021850097761
N        -3.32764701453837    1.55320209414238    3.34839533356977
C        -4.00686727455474    0.40299857131540    3.21295855948379
C        -5.39133721004454    0.35257660011391    3.15403555927613
H        -5.87624626680503   -0.60274387839842    3.04364993789880
C        -6.10609583754710    1.53654688085484    3.23933137748943
H        -7.18278195555440    1.53008252290910    3.19722729332691
C        -5.41442951611857    2.72898015919997    3.37947783859750
H        -5.91788355659415    3.67839628916360    3.45085848389924
C        -4.02908844721702    2.69517676514911    3.42907111893691
O        -3.30653706806085   -0.74233430164426    3.11779151243265
O        -3.35209710388934    3.84887251955806    3.57726742709380
P        -1.66267753600990   -0.69199749702160    3.31366183539280
C        -1.42434076736242    4.84860109423538    1.93297812828042
C         0.02244857587928    4.59510597875588    1.51366722846664
H         0.22176970750863    5.05575155912564    0.54693245926644
H         0.20647074639604    3.52411030127903    1.43418992920490
H         0.72097136638935    5.00547829682145    2.23978720993674
C        -2.37434510105473    4.27814640485968    0.87724834460234
H        -3.40537325501695    4.56108857742130    1.08726380263779
H        -2.30773786762631    3.19156322955893    0.84337932708445
H        -2.10812036847171    4.66170692393196   -0.10651697546101
C        -1.68342456479334    6.34858367363114    2.03026551142315
H        -0.94153831944532    6.84719702152673    2.64719878207767
H        -2.67864392471348    6.55132970072719    2.41710930978719
H        -1.61829330785381    6.77772917744100    1.02986132032663
C        -1.38024291655523    4.90931478910766    5.03329039742060
C         0.10829482151326    5.24452385591839    5.04675836562691
H         0.39662354001709    5.64503187524885    6.01787287946736
H         0.36134053864229    5.98299375675337    4.28923600726751
H         0.68912550742249    4.33884351848876    4.86024049219176
C        -1.69734981742661    4.03498687243578    6.24792700472944
H        -1.05414203552895    3.15926777519511    6.27004550650299
H        -2.73626948989119    3.70475626239430    6.22657120921330
H        -1.53716353306527    4.60019614872419    7.16546470065333
C        -2.25677943500960    6.15989592249546    5.12439728365817
H        -3.27157845504647    5.94431244409762    4.79733033849438
H        -1.86340354757889    6.98474040618789    4.54183314337698
H        -2.30330535229780    6.48801532667283    6.16238458100239
P        -1.69738670178407    3.81808595617634    3.51230983136630
C        -1.21254775358085   -1.78078517603631    1.82488164119213
C        -2.06643929965281   -3.03999996147004    1.66442421255376
H        -2.02391817854331   -3.36990327096302    0.62682383226872
H        -3.10680150378034   -2.83394753286161    1.90617913436865
H        -1.71461450762907   -3.86018900367369    2.27923369275638
C         0.27542730423512   -2.10129805873423    1.93242875918730
H         0.47347566596305   -2.83777776554676    2.70803220725794
H         0.83027481423467   -1.19006741750827    2.16528050601374
H         0.64556101419851   -2.49830250115356    0.98797521605576
C        -1.43848969048437   -0.90992647200249    0.58760800994633
H        -0.80389902822858   -0.02812470249132    0.61683685839788
H        -2.47877070430417   -0.58952485810295    0.52444538545006
H        -1.19920810896936   -1.47384381316808   -0.31336993558161
C        -1.50449796823502   -1.71811385364033    4.91147279211921
C        -1.74086334332066   -3.22056226482453    4.79615154854814
H        -1.75175766227722   -3.64837446777888    5.79918312481112
H        -0.94753617897073   -3.71263338790251    4.24108147158336
H        -2.70012389764198   -3.43289085169007    4.33140502495312
C        -0.09799469355894   -1.45005341509093    5.44354611607268
H         0.02771635710601   -1.90557687669264    6.42497084688304
H         0.06961535057726   -0.37714676507280    5.53306023101767
H         0.65978406282559   -1.85650979934383    4.77713816138816
C        -2.54052772219531   -1.15626144515509    5.88797303280417
H        -3.54894062227830   -1.44953349329658    5.59763715158859
H        -2.48747219511647   -0.06906005167446    5.92541731377085
H        -2.34915582845219   -1.53646276882090    6.89028066970048
C         0.52526582021183    1.57609936534800    3.49655794498065
O         1.68219151651954    1.58279600234901    3.54033531283916

