73
CSD_code = CUJJAT | q = 0 | S = 0 | Stoichiometry = C23H41NO5P2Ru | MND = 6
Ru        3.56992616255461    6.18227561173470    4.33098868430802
H         3.42206566277318    4.65753438386414    4.23177701121771
P         4.33039920796886    5.76591752156279    6.59731189653444
P         2.56276897709027    6.02582863171358    2.22566002399371
O         3.73331710344040    9.14124638546562    4.87708428550176
O         6.22394472201882    6.12697518387704    2.97148453993099
O         3.68271084514829    6.71043029886561    7.67223712767131
H         2.81558044082410    7.10297866838483    7.30707806798890
O         1.58422734061142    7.51465603586080    6.58091034872746
O         1.15060840316752    5.32860330305959    2.61236413861266
N         1.42388727886462    6.20996495749154    4.74279756983925
C         3.63525136050319    8.02552996294331    4.64711962738794
C         0.87234956072861    6.77062516192615    5.86509674815790
C        -0.50327484366529    6.51807769948305    6.14132464445515
H        -0.90158926099089    6.92450588382867    7.05642828929507
C        -1.27005863949044    5.81369527815215    5.26143623497397
H        -2.31147125110586    5.61750348826563    5.46751325032986
C        -0.71324700120505    5.38599590648434    4.05155795100286
H        -1.29594702557300    4.90462587244213    3.28533983288901
C         0.62233779643103    5.63684226677731    3.84271696417597
C         3.10283560169788    4.77879820706012    0.90992407243032
C         3.67937210234048    3.57502490414316    1.65833090546694
H         3.96725901848640    2.80326258411854    0.94550935618354
H         2.94027467787607    3.15372496086315    2.33753457221108
H         4.56064759911291    3.85608203970581    2.23191477915200
C         1.94122870024957    4.27851900550252    0.04974986679024
H         1.60032721398003    5.02109899351462   -0.66221501710566
H         1.10366966576678    3.97630399181318    0.67327948046508
H         2.27235740455313    3.40792378976160   -0.51515549677442
C         4.20702847604456    5.38833871499792    0.04959689788736
H         4.97117742331978    5.84640090355838    0.67629751506598
H         3.81864837044782    6.13591885674925   -0.63716485152624
H         4.68059510837274    4.60756050099991   -0.54427548520311
C         2.00796567082735    7.65218889429063    1.40063470003943
C         3.25114914945093    8.50712670296700    1.16511441519028
H         3.86291043645598    8.11427331864695    0.35793743186576
H         3.86383671048503    8.54756481658756    2.06693679551741
H         2.96068826928815    9.52409230319104    0.90545576908047
C         1.09729973795326    8.35800183302033    2.41035947133964
H         0.87470053882009    9.36596084290895    2.06154961504716
H         1.56714928465465    8.44490339622328    3.38988843619889
H         0.15189410829695    7.82811024897372    2.52601828814673
C         1.21573037224784    7.47245859359314    0.10935811139326
H         0.40489412357134    6.76077765838644    0.25213990722791
H         1.84685724148044    7.14495288839381   -0.71190170349835
H         0.77742191614946    8.42903048408065   -0.17520041453960
C         5.25784678332309    6.13216494915386    3.60239172187166
C         6.15583906642135    6.15448185664567    6.93151025977994
C         6.46343768628079    6.23775482802094    8.42538787235920
H         7.42503309177069    6.72982385608986    8.56723665932053
H         6.52438016203762    5.25751990051639    8.88486027396381
H         5.70399552072553    6.82189357361833    8.93820144426388
C         6.37255553264177    7.55150404051212    6.34291998262351
H         5.66447823173220    8.25736466990619    6.77507293658541
H         6.25440676461771    7.55159889520852    5.25959364761245
H         7.37961875210692    7.90043384718055    6.56919604079154
C         7.07078214621276    5.14875640919142    6.24083138952163
H         6.67178961979442    4.87167937005429    5.26564730307259
H         7.18143189662503    4.24644257498582    6.83682856208388
H         8.06152325110516    5.57837031153436    6.09851012358735
C         3.87601090496125    4.04671910609296    7.27800714467675
C         4.19816976000882    3.92223102426645    8.76551806473917
H         3.60067478874074    3.12144322615212    9.20009873317226
H         3.96187477510073    4.84451840419837    9.29094842642285
H         5.24343565440216    3.67514533253449    8.92763996406450
C         2.35540609197162    3.97643587100791    7.11086439463229
H         1.98121781072415    3.01643152800703    7.46550156033360
H         2.07614999314958    4.07907127182480    6.06258815103611
H         1.86585041266641    4.76299327589050    7.68415035109040
C         4.52371029235690    2.91248354102684    6.49341120415271
H         5.58024653981797    2.81838749780230    6.72577708779824
H         4.41841829122803    3.07849750865556    5.42367026431164
H         4.03831041743002    1.96994139364655    6.74409178106174

