62
CSD_code = CUJKAV | q = 1 | S = 0 | Stoichiometry = C25H27I2IrN5O2(1+) | MND = 6
Ir        6.96252640292772    7.76138299453187    4.33058448782342
I         8.19880842789418    7.98529139348208    1.92994720324407
I         5.64942679104986    7.34669525273192    6.66361095183388
N         9.03047465950821    6.05703466653434    5.71171782161299
C         8.08436560464546    6.14487297474576    4.75446126244406
N         8.02381839415674    4.92869135200004    4.18556367885813
C         8.92985027699566    4.08872077006481    4.77484639330342
H         9.05189150311673    3.07096689995861    4.46777739700584
C         9.56680308636320    4.79648505541091    5.73456388762297
H        10.33544601870263    4.50801302060384    6.42028145699951
C         7.10320825805618    4.53340100680997    3.14595815516170
H         7.18410782052205    3.45441249089892    3.01160095251669
H         7.37020471065185    5.02893984458658    2.20582090309211
C         5.66125647859858    4.89741230780818    3.50747645112493
H         4.97444530400397    4.33161352337647    2.86990386163745
H         5.46255399208357    4.64704510199130    4.55849569763527
O         5.47050688056460    6.28678502142721    3.26928647536299
C         4.16557437452856    6.67587268235689    2.96762989347729
C         3.98802450653679    7.49880269078612    1.86245117710222
H         4.84270192738192    7.78558500442589    1.26860219798791
C         2.71547466621298    7.93095948631399    1.53395796957015
H         2.57494951089024    8.56042879936231    0.66827188608022
C         1.62813643029290    7.54253942442188    2.30122549565832
H         0.63556090284956    7.87447073926444    2.03862175051085
C         1.81476785938483    6.72093719582809    3.40052064450246
H         0.97121946993886    6.41596363843009    3.99961979174169
C         3.08290923761817    6.28173065298565    3.74077140839987
H         3.22213986420072    5.64899854956751    4.60360392737174
N         9.33764324589554    8.39582838264380    6.05264731848980
C         8.43533562758320    8.88338392852653    5.16680869144032
N         8.83327207054974   10.14005941558270    4.89709735842830
C         9.95384936854808   10.44458478437276    5.61828681442823
H        10.41377922776089   11.40878490492671    5.56272785491378
C        10.27604524752776    9.35111850740737    6.34259809062373
H        11.07840488626809    9.17928298806216    7.02908230958649
C         8.19578626082135   11.12296210824250    4.05649781591116
H         7.58916561808195   10.63126269617937    3.29797516376787
H         8.97681074924892   11.70753150041687    3.56574141410428
C         7.32971032076770   12.06180397241692    4.90118743818145
H         6.78212824589593   12.73972152880496    4.23263479499089
H         6.60866213103778   11.47600298559777    5.49066991227226
O         8.19542666051352   12.77653373414923    5.74463829006340
C         7.66626890620631   13.73213905168989    6.58298760750607
C         6.31700517488807   14.03681626770915    6.68084627463799
H         5.58109973697254   13.52081653990331    6.08341568691215
C         5.90126422115539   15.02470183707835    7.56059915860341
H         4.84963629527157   15.25807466976779    7.63030631359167
C         6.81562289255136   15.70647704751816    8.33982741714549
H         6.48272140819900   16.47438417767044    9.01981984483597
C         8.16331954699760   15.39745319381433    8.24096650181771
H         8.88588961423703   15.92408154632699    8.84475726805043
C         8.58941893022067   14.41629941123680    7.36951193286060
H         9.63433095845262   14.16537663927692    7.27805736887930
C         9.31053112806145    7.09453388126649    6.66968239370197
H        10.28352905788899    6.90256860379054    7.13095384929569
H         8.53238435013380    7.07959410002559    7.45140428441651
N         5.70485065711260    9.23871442620004    3.94341910213897
C         4.73951220999167    9.84503024414905    3.79704196906002
C         3.56268859661428   10.62476969018940    3.64214824910266
H         3.24618621642496   11.00411632577384    4.61442632313453
H         2.77011664873681    9.99997994594871    3.22671791911924
H         3.75305042970677   11.45985842262975    2.96794408830115

