108
CSD_code = CUJNAY | q = 0 | S = 0 | Stoichiometry = C57H48CoNSi | MND = 7
Co       12.62837844489635    2.84518997184950    3.97640161227730
Si        9.57525862287235    3.35091064352831    4.02959698765591
N        11.04434339557271    3.23348723011848    4.92212167526940
C        11.19995034440157    4.03311545826282    6.04762726272321
C        10.79741763519174    3.58195222069341    7.31826669524019
C        10.93181496229089    4.41396057355830    8.41668444700729
H        10.61503322109569    4.06083653748559    9.38710553458862
C        11.46108226794355    5.69182791950966    8.30970174815675
C        11.87765050454039    6.13077985829728    7.06027759820091
H        12.29747750376956    7.12135441010838    6.95844201301626
C        11.74760419633028    5.32731988271935    5.94429415640329
C        11.60346707245955    6.56311061285887    9.52080775149792
H        12.49821818807532    6.28795736847672   10.08084416243103
H        10.74748465764436    6.44418846386974   10.18179739702755
H        11.69029095101001    7.60928904148398    9.23691500971750
C        10.24160311854989    2.18348349308410    7.46598503977082
H         9.59125009809476    2.00753995979876    6.60194161144960
C         9.39701619123693    2.03441440288220    8.71033949570257
C         9.94504283839395    1.61280143334974    9.91644502764176
H        10.99625001836965    1.36755503198451    9.96992607722504
C         9.15607384058387    1.50483412582375   11.04810749181084
H         9.59565159145803    1.17531854058791   11.97874910295604
C         7.80904307692135    1.81915918686653   10.99133640950722
H         7.19416714647196    1.73494512185597   11.87555102834255
C         7.25588057049156    2.24067413357191    9.79418782885133
H         6.20552399312301    2.48757930718406    9.73915189429042
C         8.04425471339975    2.34530817764974    8.66251084285368
H         7.60865274684157    2.67433117324006    7.73154587548819
C        11.33623455027594    1.13975928479564    7.44721793944881
C        10.98310182318260   -0.19869025022520    7.30571865007902
H         9.94047875314233   -0.46377776165455    7.19524964612382
C        11.94593215320472   -1.19086817727545    7.32471611473685
H        11.65609025702598   -2.22565786890115    7.21230089575296
C        13.27995528470786   -0.85992159867213    7.49708410008945
H        14.03168371073028   -1.63589688592786    7.52248807109412
C        13.64007070459768    0.46832861188742    7.64424405318240
H        14.67779391369070    0.73423725209492    7.78979481242481
C        12.67581586737755    1.46162336565050    7.61652062226396
H        12.96356104354937    2.49370911781543    7.74554957047627
C        12.18837824448992    5.76690484233198    4.56888478680929
H        11.30881108274921    5.71550586503078    3.91468078252256
C        12.71818366681637    7.17804682140045    4.51132149373208
C        13.99669988268676    7.48883052455298    4.95984459422049
H        14.62609495646698    6.70710430830154    5.35953904160713
C        14.46614847231690    8.78832881204449    4.89801022692593
H        15.46139562101756    9.01703998354958    5.25095717401416
C        13.66504150263603    9.79478157419881    4.38511019071068
H        14.03287057200339   10.80910130956519    4.33611521902745
C        12.39183401514719    9.49334993354009    3.93352943625345
H        11.76237600301407   10.27299054094228    3.52982344639341
C        11.92282155095061    8.19283986138110    3.99529354372594
H        10.92929362307951    7.95987560470065    3.63802702945559
C        13.23091080231217    4.81514610260271    4.01748943103921
C        13.55520078519968    4.88923817429289    2.64638771660307
H        12.93875539843904    5.49739177989601    1.99923805595907
C        14.68956447968284    4.28062823184689    2.14965706595102
H        14.92799553382905    4.36255439990127    1.09917551585562
C        15.55295181561560    3.59316528968824    3.00196450534044
H        16.45941095751897    3.15572050382176    2.61094760391950
C        15.26210997631079    3.50008521015056    4.34846214474360
H        15.95160366718258    3.00469922278329    5.01776335534726
C        14.09829653983000    4.08077340727867    4.86889131486223
H        13.97567050713176    4.14716711957208    5.94423331999646
C         8.14363445636928    3.93627750124860    5.13203491089793
C         8.23900016528530    5.09535204909767    5.89486736746788
H         9.15507750354834    5.66633484243496    5.88426128134315
C         7.18079894975145    5.53030347792594    6.67272199997173
H         7.28195270382799    6.42993023909904    7.26280649833267
C         5.99422683454224    4.81706205152413    6.69229701264020
H         5.16554464442713    5.15574943846069    7.29741482116710
C         5.87679235288618    3.66627464394988    5.93086636844478
H         4.95400456301490    3.10324419961594    5.93873889262453
C         6.94381816044488    3.23246313123444    5.16338924117346
H         6.84591294433802    2.32960144314666    4.57721183936752
C         9.65074290817170    4.56798012133885    2.55607592831397
C         8.89013642438383    5.73302096494591    2.50540012982615
H         8.20493743052733    5.95142799858432    3.31260157937899
C         8.99756604504866    6.61390551807886    1.44323818746658
H         8.39923348180623    7.51424727142994    1.42630006409316
C         9.86811681856905    6.34292910821882    0.40112672259640
H         9.95336764706036    7.02938848370130   -0.42904327284371
C        10.62747857920199    5.18488638742480    0.42932970238980
H        11.30661326395660    4.96487508466018   -0.38311912402450
C        10.51733281180028    4.31252954878602    1.49701392792007
H        11.11936978315017    3.41356136799676    1.51866487223927
C         9.05542211712261    1.67108688470839    3.30754060754305
C         8.42973545723454    1.60985618001986    2.06701086462650
H         8.27932413595574    2.52182860202024    1.50683804125941
C         7.99938644303380    0.40585690536992    1.53797926827869
H         7.51673779053728    0.38278019856786    0.57091691745082
C         8.18477583502945   -0.76885365544366    2.24718454332311
H         7.84992720958788   -1.71048951825834    1.83625661204366
C         8.80047804348780   -0.72786746869136    3.48694088769451
H         8.94759917722624   -1.63976693005596    4.04841351773570
C         9.22560664630809    0.48090473331084    4.00729388429757
H         9.71121724882173    0.50453933210915    4.97029759238764
C        12.84015158357146    0.66148741253247    4.02784552452979
H        12.13651555446590    0.41866589125837    4.81478885271039
C        12.37900714310489    1.11412172860375    2.77281435953231
H        11.31230789103937    1.18750873046779    2.58426234524985
C        13.27434887223503    1.17777673601055    1.69698213742742
H        12.91842138056225    1.48520040275339    0.72306151841199
C        14.59101603064772    0.79047314323001    1.85616937227080
H        15.26695331535431    0.81898029574934    1.01374521057419
C        15.04088298477176    0.33396154845844    3.08989752064784
H        16.06535686986665    0.00904967614920    3.20002545267600
C        14.17695349330982    0.27500993934955    4.16615504727008
H        14.51949667467588   -0.10839443477878    5.11568772346282

