136
CSD_code = CUJQEF | q = 0 | S = 0 | Stoichiometry = C36H90LaN3Si6 | MND = 3
C        -8.67704606157931    0.44431070759004    9.38582529158588
C        -8.59949994622198    1.32985995582502    8.13952218442018
H        -7.96240078871874    2.19293728087217    8.31362828757035
H        -9.59240975007360    1.69473492886879    7.87574530102907
H        -8.20979824182848    0.77781983453110    7.28773469121046
C        -9.69626562457738   -0.66152928414037    9.11835622815494
H        -9.40758100194384   -1.25673066070955    8.25590230402435
H       -10.68036765796540   -0.23573423423395    8.91954812926047
H        -9.77774712473537   -1.32022877213608    9.97778113129596
C        -9.18244046057462    1.29822506774094   10.54636457617299
H        -9.27899726420769    0.69636462375976   11.44318189562383
H       -10.15762011209065    1.72543569014381   10.30952653829686
H        -8.49389460271718    2.11144482422719   10.75222194544308
C        -5.60554038016004    1.04717960086096    9.50848197890386
H        -5.71247709747393    1.49536053061239    8.52540152482571
H        -4.60488241587558    0.60515116005528    9.53449004805635
H        -5.67637207143883    1.85770434886470   10.23913436241753
C        -6.55623282692017   -1.59713976275871    8.42351053384218
H        -7.21981130124212   -2.45331519846613    8.45528196679249
H        -5.53820410204333   -1.96573792870635    8.50393335812729
H        -6.65690488316560   -1.14787060812969    7.44026962173718
C        -7.49985840495768   -3.78793070878621   11.83914667477626
C        -8.70272097470772   -3.98593383151275   10.91770568152545
H        -9.63356156490485   -3.79405201428853   11.44456225347853
H        -8.73293202703382   -5.00980278564982   10.54337698813752
H        -8.64453265192421   -3.31389768475446   10.06662150945755
C        -7.64356649361792   -4.74956359754344   13.02157330417709
H        -6.76109543932050   -4.72343206061413   13.65551690631804
H        -7.76721180597221   -5.77138518243013   12.66203301929207
H        -8.51206756864275   -4.50098288635489   13.62672150387427
C        -6.24061426458295   -4.16789497978637   11.06391967483513
H        -6.11162017069384   -3.51584412223883   10.20760058978300
H        -6.30550559897530   -5.19774361506010   10.71061986467422
H        -5.35986291771236   -4.08232934086475   11.69346790472501
C        -9.19647223148635   -1.49957784912848   13.04314807265952
H        -9.21034560192399   -0.53646112929480   13.54425857049682
H        -9.56473985122300   -2.23449910542591   13.75240611577099
H        -9.90859679231719   -1.45392752391654   12.22767284694783
C        -6.39978824845567   -1.84755765603012   14.08534199598799
H        -5.32154590530761   -1.91828715183624   13.91481527692763
H        -6.66511374700388   -2.65206486138703   14.76419715758194
H        -6.63318634530066   -0.91781915787589   14.61076246755569
C        -6.26983143512115    4.87725196387526   14.53098945526801
C        -5.68897998820467    6.22988287536075   14.12672896398852
H        -4.67988947268991    6.11024426346522   13.74689077444943
H        -5.65776085715415    6.90440129957411   14.98309234730778
H        -6.29354597370940    6.69926714182561   13.35517449183120
C        -7.70160508828980    5.10454378585040   15.02443502590835
H        -8.33102070111294    5.49199002184163   14.22763383264295
H        -7.70798075892266    5.82840691684973   15.83974200144891
H        -8.14049922882563    4.18114202487428   15.39268034360660
C        -5.44219362653641    4.33363575830948   15.69442707260163
H        -5.83655105179572    3.38273925145347   16.04368339018822
H        -5.45683541740239    5.03240808185026   16.53165217791339
H        -4.41071714016604    4.19083387674877   15.38790896947089
C        -7.31326406103542    2.11691344149441   13.62217969777479
H        -7.23121679728544    1.27965124275934   12.91667676343689
H        -8.36723098219422    2.37371664389386   13.67129683715816
H        -7.02239561663109    1.78667389186411   14.61935126854617
C        -7.30698390846407    4.46328449820459   11.64517717539564
H        -7.01140997821792    5.49184566000608   11.47268294170619
H        -8.36501493855940    4.46743404228316   11.88661033493796
H        -7.19095331214813    3.93737583815156   10.70348035026529
La       -4.79155997410767    0.44604726024296   12.50386642495099
N        -6.63960154355637   -0.79571220347588   11.43132325676513
N        -4.79151082971922    2.92696279747583   12.50430778957011
Si       -6.94180559594265   -0.31588753876066    9.80413798843063
Si       -7.42281423273368   -1.94577685751978   12.44779397055834
Si       -6.26939250554145    3.63639273212094   13.03508505549156
C        -3.31334537559131    4.87698141576225   10.47704109326987
C        -3.89366863285117    6.22990572083465   10.88108204809816
H        -4.90305782845076    6.11083448701396   11.26031344965970
H        -3.92399023213757    6.90450762905751   10.02475182837519
H        -3.28930222805186    6.69890355018915   11.65302252303413
C        -1.88156351658512    5.10369182836809    9.98334917662708
H        -1.25205192481563    5.49157199848873   10.77985921106169
H        -1.87510208715876    5.82698934994796    9.16754353779250
H        -1.44284204099796    4.17996653038039    9.61571719694374
C        -4.14130977971902    4.33345153244247    9.31379839674975
H        -3.74697540752155    3.38264188870975    8.96427846155398
H        -4.12698166960716    5.03235113989845    8.47667423364631
H        -5.17268530209763    4.19052469222115    9.62058606053406
C        -2.26991460465902    2.11685575781209   11.38619960198829
H        -2.35235540766797    1.27944611635813   12.09148237876402
H        -1.21589733120427    2.37353776852355   11.33756870575616
H        -2.56042994028933    1.78686054497742   10.38884872890205
C        -2.27578428076499    4.46375354929514   13.36258314336873
H        -2.57115477820308    5.49243995161700   13.53469917593652
H        -1.21782250050445    4.46769585219932   13.12081985618839
H        -2.39157832496165    3.93831170917402   14.30456902169741
Si       -3.31375038654669    3.63639074667028   11.97319371893464
C        -0.90583989625406    0.44453160829876   15.62172774345459
C        -0.98331612683429    1.33035251018355   16.86784241231035
H        -1.62063671005106    2.19325243647512   16.69366238393209
H         0.00957369391524    1.69550024826617   17.13131235842722
H        -1.37272425868102    0.77843177555980   17.71984056272407
C         0.11306466451869   -0.66153036290769   15.88947771541254
H        -0.17602281839151   -1.25672251074954   16.75179818168338
H         1.09719872148601   -0.23597326909821   16.08862414216062
H         0.19466665673974   -1.32017729116794   15.03002291644120
C        -0.39999517397855    1.29812288251264   14.46114785416416
H        -0.30402902782452    0.69627823159527   13.56425919295928
H         0.57557371319150    1.72450083702275   14.69789983099355
H        -1.08788729742405    2.11194409108458   14.25547898267578
C        -3.97742441135060    1.04755647382765   15.49944020465981
H        -3.87079186294556    1.49532668965699   16.48274015226659
H        -4.97809046007417    0.60555137510206   15.47295202203194
H        -3.90634244162931    1.85834824808867   14.76912646850275
C        -3.02663518257846   -1.59671029415086   16.58435880246036
H        -2.36315838772290   -2.45296196559404   16.55247762167068
H        -4.04471574608228   -1.96520876692133   16.50412323474477
H        -2.92572811361167   -1.14743148695762   17.56757326161409
C        -2.08328658718940   -3.78768826219094   13.16835815089479
C        -0.88032446652528   -3.98539536325702   14.08972700407391
H         0.05044127421075   -3.79345116231308   13.56276431102649
H        -0.84990761435423   -5.00919643539569   14.46422424429274
H        -0.93857163888104   -3.31322274829138   14.94069292875967
C        -1.93936961986967   -4.74927649847908   11.98592348162936
H        -2.82174110720962   -4.72319122043652   11.35184361136371
H        -1.81570521101567   -5.77111276903504   12.34542626227366
H        -1.07079550872960   -4.50060430897074   11.38091992279572
C        -3.34236904070505   -4.16796935961066   13.94368434548495
H        -3.47144697446924   -3.51591153698318   14.79999175271722
H        -3.27719531492615   -5.19779126919104   14.29701911611091
H        -4.22319030445089   -4.08265837886906   13.31420130836012
C        -0.38719434664319   -1.49936309271205   11.96414168835612
H        -0.37313992747246   -0.53585948866680   11.46379235387155
H        -0.01954353490254   -2.23386172281608   11.25412243111542
H         0.32529539410684   -1.45466451018457   12.77934895268439
C        -3.18391735170087   -1.84728973246808   10.92237352184993
H        -4.26222662863164   -1.91691407206090   11.09302694958093
H        -2.91943483150325   -2.65247895339100   10.24399783479613
H        -2.94969201367355   -0.91811358760577   10.39635659594410
N        -2.94390912477037   -0.79568162363873   13.57661853001434
Si       -2.64121250858465   -0.31551975780664   15.20362000402724
Si       -2.16074162840500   -1.94550293609615   12.55983812447285

