44
CSD_code = CUJQON | q = 0 | S = 0 | Stoichiometry = C18H22Cl2SiZr | MND = 12
Zr        2.74252056082922    2.24026183259121    3.27246500331158
Cl        0.53475900045848    2.56318847036388    3.97599210656221
Cl        3.16692698745935    4.53675720515442    3.11333123873276
Si        4.52199780754716   -0.50399813960543    2.72328759904091
C         3.83559908893314   -2.26878790588378    2.78300638541278
C         4.49431162387404   -3.28347554668494    3.32050545585150
C         6.35699746862556   -0.58841306611814    2.26897381780449
C         7.34746884218275   -0.43429071230500    3.13410636666024
C         3.45649967938203    0.60032894194418    1.62077455815374
C         3.81693469599110    1.88684869517479    1.13046930598971
C         2.62888055399566    2.57793010376860    0.78612334947615
C         1.52102712680840    1.75373755625008    1.09726873165279
C         2.02670459223741    0.55402576499924    1.64615159150990
C         5.20499881920910    2.44042307746686    0.95555559916326
C         0.08400917169918    2.06908312222646    0.80227268878355
C         4.21169466976374    0.56359872567900    4.25379863827186
C         3.01965237079437    0.58311414226876    5.03056654597537
C         2.97298559700930    1.80850679963085    5.73928842476922
C         4.10823747171267    2.57758360497441    5.38662143337941
C         4.84889046504028    1.83220575188517    4.44256289827444
C         1.98396842849111   -0.50329376419761    5.12984261850618
C         4.49785402462003    3.89418319609303    5.99181358717525
H         2.87140289630728   -2.46309806153028    2.33045267778371
H         5.46242705537169   -3.14699116014469    3.77306634768375
H         4.10269279970313   -4.28902030577469    3.33630273503460
H         6.59902298463823   -0.83713399251559    1.24335633945814
H         8.38469222312862   -0.53251573771904    2.85125978820167
H         7.16158296950276   -0.19953408280821    4.16929228783007
H         2.57984707394089    3.53961728118060    0.28701938013182
H         1.42736079411833   -0.31569020950111    1.89419845425385
H         5.95476953417295    1.73678913197486    1.31521747448449
H         5.40545970461269    2.64178665987649   -0.09843305585861
H         5.30773194586126    3.38643154605231    1.49850126541376
H        -0.14220486764216    1.85828261919954   -0.24543252231054
H        -0.57836129810502    1.46856627393417    1.42490020415248
H        -0.12467815404034    3.12355231805641    0.98877243954589
H         2.24014007911312    2.07369203601305    6.49360951085672
H         5.82265372619183    2.11107199166712    4.05396918300713
H         2.31736641388050   -1.40313155326651    4.61516420660496
H         1.03325078916612   -0.16909014410857    4.69819614981753
H         1.79884098070684   -0.75642051508922    6.17473077732310
H         5.18129768124556    4.43286945636604    5.33622916771311
H         3.61781263356918    4.51551555782001    6.16294881337025
H         4.99377298787886    3.73623303462631    6.95230043106138

