100
CSD_code = CUJRUV | q = 0 | S = 0 | Stoichiometry = C47H48AuClOP2 | MND = 3
Au        7.02956717358213   -8.44269824315020   -3.95882588014163
Cl        8.97840083754363   -9.31076264140679   -3.03559484942957
P         4.82949448401713   -8.12598058577110   -4.50461266438146
P         8.17317977633417   -7.33206915865376   -6.14361147131041
O         5.69521214414612   -6.36432713512122   -6.43948426555388
C         3.75914110166885   -8.83141234221818   -3.21934559045818
C         2.44931680095608   -9.20763239581622   -3.49470068348877
C         1.65336025636202   -9.74411105277376   -2.49299657583967
C         2.18842337147803   -9.89651267349917   -1.22008413928539
C         3.49697944755384   -9.53101628449480   -0.92830730059872
C         4.27874464364014   -8.99677152485824   -1.94248409292720
C         0.23651815265404  -10.13563100674681   -2.78677538534800
C         4.04877785363953   -9.69781020871600    0.45353166224926
C         9.98298822634652   -7.48457667888953   -6.27547525141257
C        10.72265661584523   -7.24512670762490   -5.12885408119870
C        12.10589805383660   -7.38484701487637   -5.13986927810367
C        12.72600923039829   -7.74624978111684   -6.32466005519231
C        11.99859248306330   -7.98111680728877   -7.48915199200109
C        10.62128694325172   -7.85642398385682   -7.45661632798973
C        12.88474873471722   -7.16269615199108   -3.88074238084427
C        12.71112088059981   -8.37159391835183   -8.75041465173029
C         4.33052909977349   -9.11490815197684   -5.94195325069824
C         4.76800876517189  -10.43477124783749   -5.92926895528384
C         4.37813524866342  -11.31514723216305   -6.92462251616384
C         3.56587623164454  -10.84210662153990   -7.94857014953807
C         3.13657835778241   -9.52317312998874   -7.98884980686206
C         3.51677632736599   -8.66109239002248   -6.96955606070080
C         4.78040448778765  -12.75621924277759   -6.87755115940009
C         2.27478248503445   -9.03376948805765   -9.11421281241249
C         7.69971437859665   -8.72879234040541   -7.21110038506726
C         8.16322673053425   -9.97080260687248   -6.79204009065174
C         7.91282887523471  -11.10831486631744   -7.54308342488766
C         7.17305265975099  -10.98371752413457   -8.71110365209165
C         6.68350982165018   -9.75410136976052   -9.13282175261817
C         6.95144905264103   -8.62422149970742   -8.37520760396250
C         8.47335522187066  -12.42938677770671   -7.11223675948000
C         5.90901906257957   -9.65512950618461  -10.41358073361218
C         4.03651745060818   -6.52636621764607   -4.81859878945594
C         4.58605206923821   -5.81129909652549   -5.88650717867378
C         4.02480133403681   -4.62049882369320   -6.34108039402660
C         2.95346529461859   -4.10848455885812   -5.62035374036341
C         2.44828447636093   -4.76913176390237   -4.51179190239995
C         2.96738909826998   -5.98920722756800   -4.11739098562706
C         7.83596285730684   -5.90053716613966   -7.21923466971412
C         8.74044996625797   -5.08725774261076   -7.88259955923234
C         8.28751295842705   -3.92741189304669   -8.48702201382420
C         6.95453920151247   -3.55866774191325   -8.41403461633157
C         6.02620558022074   -4.34484336974127   -7.74018711528787
C         6.49475769208244   -5.51565837476161   -7.16167634659413
C         4.54289955157295   -4.03437535840224   -7.64380433271332
C         3.83399678210616   -4.78117742262238   -8.79351698222579
C         4.25395253041603   -2.53819876150943   -7.76283490522269
H         2.05419144652466   -9.08747175272003   -4.49490044408329
H         1.57384254899072  -10.31843867976576   -0.43678043678220
H         5.30739410671354   -8.71626868913526   -1.75158229404073
H         5.13358543836649   -9.76205293692907    0.42890510806219
H         3.64933395032122  -10.59292140462269    0.92535328602711
H         3.77329076366116   -8.84107707273868    1.06971731783770
H        -0.15626011479632  -10.78904687911339   -2.01196940314946
H         0.17117352860560  -10.64483878186482   -3.74625603840253
H        -0.39385150498866   -9.24725968662696   -2.83653909047001
H        10.03482094747307   -8.05494160883957   -8.34462990528695
H        10.21300610565472   -6.98291920607108   -4.21242107872506
H        13.80149989258638   -7.86152941187476   -6.34910565316764
H        13.93792902446298   -7.39335883140039   -4.02173319578189
H        12.48541483188825   -7.79475591551545   -3.08946178871999
H        12.79324859356971   -6.12658327147116   -3.55582647414974
H        12.00452577240389   -8.54157382092922   -9.55924175968566
H        13.28654512029051   -9.28311437788334   -8.59360495483457
H        13.40568414686155   -7.58807333293520   -9.05278729187517
H         3.16269220590961   -7.63945372714094   -6.97615903532011
H         5.41054319407618  -10.76768991000452   -5.12278687632012
H         3.25386307024907  -11.52271374792427   -8.72924191551535
H         4.99493670671133  -13.13197733499698   -7.87524574375117
H         5.65581239964474  -12.89057534793562   -6.24918872105673
H         3.96690219008109  -13.35252150525821   -6.46220526254875
H         2.89624611920707   -8.75095981315533   -9.96420697627060
H         1.59050444344718   -9.81200192248825   -9.44527753251394
H         1.69871502164013   -8.16188487699080   -8.81234230142149
H         8.73851654511282  -10.03976030984471   -5.87692641767338
H         6.58890116624237   -7.66032363324646   -8.70456797061987
H         6.97937791471482  -11.86034708093771   -9.31457036560264
H         7.93525159451385  -13.25678986300548   -7.56923312259536
H         9.52018316689819  -12.49806547106035   -7.41001898080892
H         8.43478852221972  -12.52634019903841   -6.02930758458508
H         5.50485190094902   -8.65414093144975  -10.54596675842906
H         5.08913689744886  -10.37120569843885  -10.42009919265213
H         6.55518330391883   -9.87903681835391  -11.26268134534500
H         2.55049421552254   -6.52158301884475   -3.27553324310450
H         1.62311031004352   -4.33702268512365   -3.96608503955490
H         2.49455737718357   -3.18104137575178   -5.92218124270732
H         6.64421752203633   -2.64130124490116   -8.88749746379265
H         8.98352628484803   -3.29299540111739   -9.01565981251044
H         9.78468532359505   -5.35909463229854   -7.91685204000484
H         2.75764372310670   -4.63014066462336   -8.73411188129843
H         4.03731142536956   -5.84959722430454   -8.74095155782557
H         4.18937565208087   -4.41098403024449   -9.75298795591872
H         3.18383924886266   -2.35298303624516   -7.72707915812967
H         4.73726021275883   -1.98854050643743   -6.95829450530837
H         4.61224688111266   -2.15746651690154   -8.71500799826774

