72
CSD_code = CUJWIO | q = 0 | S = 0 | Stoichiometry = C25H37BN7PRu | MND = 6
Ru        4.58055862704002   -0.29906637105773    7.69962690422433
P         2.54907504409335    0.65559493393153    6.87545708020713
N         5.75771515951596    0.13063809350513    6.08642296921115
N         3.65960725589817   -1.09796077405785    9.35944334589736
N         4.17956414160378   -0.88150283112437   10.57133940642880
N         5.05104876219295    1.48938439033831    8.85585581909527
N         5.31466215147303    1.30795133454317   10.15103449927588
N         6.29653388825429   -1.00376237302428    8.57156428914836
N         6.51990998065283   -0.80442085930219    9.87182309768224
B         5.47765843277181   -0.09293087436649   10.74698643777034
H         5.81159102919039   -0.04492843029022   11.88099752058482
C         4.43658916378929   -2.02967823110820    6.70113762731437
H         3.98300430432499   -2.97455334566102    7.02383304066201
C         5.10994324098371   -2.06480834766053    5.53003923962009
H         5.18374546389791   -2.92728406141693    4.87395198014099
C         5.84948851212503   -0.88873513273098    5.18752662731149
C         6.68691052496980   -0.79508145834896    4.06771266416164
H         6.70645584254111   -1.61329488425115    3.36350736050165
C         7.48063018484482    0.31551031350614    3.89059121341294
H         8.13231000162172    0.40322227551202    3.03410609865161
C         7.44024618028178    1.31397295651659    4.85974440169445
H         8.06982363416222    2.18683054163658    4.78915739472383
C         6.57025314763797    1.17261335841178    5.92405305402113
H         6.53203827505982    1.93957524343633    6.68685841968660
C         2.67494646825060   -1.97583077797891    9.50202770858669
H         2.11373833782744   -2.32806870234493    8.66018495628946
C         2.54125246930387   -2.32760657048197   10.84593535434843
H         1.83505573431344   -3.00743429327665   11.27664737129613
C         3.52308568977757   -1.60998461659156   11.49044248876256
H         3.79493269387975   -1.57234874715020   12.52571844387836
C         5.14388160776581    2.79229318671561    8.61900622597910
H         4.98253993455631    3.20467375573006    7.64090616988873
C         5.47098431031492    3.47458273444306    9.79111233258573
H         5.61221983043143    4.52854754926003    9.91702378481934
C         5.57296409252952    2.48437831758399   10.74268884222886
H         5.81106031027621    2.54132145130141   11.78527055256402
C         7.35867552100097   -1.62295815031778    8.07281066017166
H         7.41630448110956   -1.90850185983345    7.03934690385057
C         8.29971744598610   -1.83102049085047    9.08185103691227
H         9.25587615452008   -2.30464662607911    8.99402194621457
C         7.72257296841980   -1.29361823585720   10.21107580466161
H         8.08366288054666   -1.23009797635329   11.21760213470998
C         1.95044151965413    2.07125888315340    7.98255499187175
H         2.88147836783824    2.61558907684360    8.17204818909643
C         0.94715956610581    3.10324784277434    7.46479335813927
H        -0.05594005214400    2.69924930616232    7.37976749418218
H         1.23242020967119    3.51856218139426    6.50369466572831
H         0.90611579879227    3.92575523410618    8.17979743011183
C         1.48204694933852    1.52376033928936    9.32948271721956
H         1.40314075691196    2.33344629314741   10.05469401035498
H         2.19333559666255    0.79493929362798    9.71163720797045
H         0.50607253450710    1.04979419704098    9.24949655955428
C         2.51183040543481    1.49925710294636    5.19831976519313
H         1.50801516624878    1.91415217881538    5.05709946671432
C         3.52634285149395    2.63788989228136    5.13897055477457
H         4.53406495302233    2.24112827778891    5.22723538189576
H         3.36446112756988    3.36651372124429    5.92944135688207
H         3.44826396669427    3.15585465682054    4.18259206375669
C         2.80159464241638    0.50040853362765    4.08078743428211
H         3.05625066634956    1.02966943027866    3.16299207761942
H         1.94064294065455   -0.12752344615622    3.87571020529775
H         3.63785484617586   -0.13968504467803    4.35236170735234
C         1.01933556377693   -0.45214619603517    6.79686834132451
H         0.88817831906523   -0.71910935168772    7.85220099793695
C        -0.29381532806016    0.15435030537086    6.30584473122113
H        -0.19383479594216    0.59081670249283    5.31565157515899
H        -0.67809276254605    0.90670040497630    6.98594355638399
H        -1.03890763113162   -0.63909815199568    6.24394298825759
C         1.29059572343374   -1.73968625068110    6.01596630906592
H         0.72615661351796   -2.56911531100644    6.44036925041321
H         2.34995777835099   -1.98342183593856    6.03879368000938
H         0.98689982640009   -1.63662368086035    4.97779872305432

