59
CSD_code = CUJWUA | q = 0 | S = 0 | Stoichiometry = C26H29AsClNPt | MND = 4
As        4.24182122685442    6.74111122721899   19.17749929096894
Pt        2.56875828644523    6.64216070070788   20.82845835782483
Cl        2.62464442932140    4.40073462650484   19.95969132254878
N         1.02502504189828    6.38576307890104   22.20334574278873
C         2.33021611802786    8.54644918606550   21.38447671563884
C         2.68976145513645    9.68605568278633   20.64132246014936
H         3.24719322317986    9.55820993263874   19.71585015627786
C         2.33965482040113   10.93803157238940   21.06303398256517
H         2.61573763325076   11.81175010727599   20.48837373230336
C         1.61490263685866   11.12288725324299   22.25852516634323
C         1.26584936772160   12.41141837749740   22.71185819162694
H         1.56476984099574   13.26420721444196   22.11839783690064
C         0.56961634398510   12.58470310097536   23.87414508105427
H         0.30684014685913   13.57536102083403   24.21524816057371
C         0.19433089500831   11.46860830628304   24.63607786870661
H        -0.35056259237088   11.61534005664171   25.55771154750719
C         0.51440274328643   10.20555878092877   24.22397503624103
H         0.22312114151644    9.36297632274142   24.83308187830008
C         1.22866835891658    9.98706159729167   23.02427314806241
C         1.58679868642577    8.70632817789461   22.54176182089779
C         1.25479395036068    7.41277775581808   23.25466958083307
H         0.34818884696349    7.48823495411102   23.87157363709925
C         2.45270736130081    7.05300876939343   24.13693199930956
H         3.29751926909871    6.78544144776709   23.49515536118983
H         2.23576596978328    6.23603268779974   24.82039870313722
H         2.73463844844507    7.92522581677354   24.72232438208587
C        -0.24279803806848    6.65856764293926   21.51846422183129
H        -0.34628815365968    5.98467918217474   20.66657638188498
H        -0.26700732010898    7.69084601408751   21.16726280733121
H        -1.08945192838020    6.49975164679085   22.19808485561357
C         0.96770365700057    5.03135550819578   22.75223566978536
H         0.20669318213307    4.96317672804370   23.53904622116809
H         1.93512129496156    4.73852063138155   23.15398820531292
H         0.72101266415270    4.33384006813444   21.95238564382834
C         3.23897785786339    6.92484175121730   17.53025028438473
C         3.82996614936286    6.77953761202637   16.28278436197395
H         4.88830523668952    6.54952121256088   16.21709732895272
C         3.06659611950476    6.92291365350783   15.13742403713226
H         3.52421358176354    6.80523732636345   14.16544442119685
C         1.71498986840300    7.21331517551599   15.23542810446298
H         1.12182247604976    7.32074899221901   14.33899429409278
C         1.12284257500790    7.36194242200436   16.47904524623527
H         0.06839032529154    7.58635541961449   16.55280029793497
C         1.88468287899237    7.21875048053893   17.62524391985382
H         1.44195506148930    7.32175128793137   18.61909690046376
C         5.53943018430680    5.38148864821396   18.82423808393458
H         5.32587621695394    4.32326372837707   18.81952123590208
C         6.75674495681874    5.90572287687112   18.60801871387487
C         7.97885008297991    5.09345828532371   18.31798417075545
H         7.73501901857343    4.03402305453872   18.29670774280155
H         8.73774027129303    5.26120030204578   19.08191914093845
H         8.40702639286281    5.37280146310342   17.35546157226740
C         8.14576085628024    8.06377570273861   18.45221686394274
H         8.54840460212562    7.82302851953271   17.46863822114125
H         8.87326477582140    7.74468747036973   19.19804712224823
H         8.02439080188280    9.14194387580454   18.52410378785057
C         6.83650820039359    7.37329924949674   18.66969917676798
C         5.67897027190587    8.00499093929116   18.92062398685363
H         5.60592222915013    9.07832537428526   19.00060581665557

