64
CSD_code = CUKGOG | q = 0 | S = 0 | Stoichiometry = C24H37ClIrP | MND = 8
Ir        1.13400504031668    1.46256423164443    3.61296310797083
Cl       -0.93145830880827    1.79187450703935    2.53171687206794
P         1.91234895389167    3.47691972492231    2.84431639566142
C         1.57916797708357   -0.25947882492078    5.02805961061747
C         2.79099215428035    0.15264750246360    4.38720921216429
C         2.68446665420988   -0.18770890693144    2.98298624755808
C         1.39192879474486   -0.67577674239099    2.75627073561867
C         0.68502088295630   -0.68592577834524    4.01811561608926
C         1.35576596207943   -0.33967285037702    6.50551420700964
H         0.31190157120761   -0.16693391483691    6.75861081948886
H         1.96236094865446    0.38966865386105    7.03817893191462
H         1.63183436750239   -1.33371770706877    6.86378942976682
C         4.08151273495625    0.42126097325910    5.09850097424543
H         3.92113338038113    0.98992833120560    6.01218884871844
H         4.77770135636007    0.97224293712990    4.47061986010743
H         4.55415709747100   -0.52523540530506    5.37144280510404
C         3.83401836264207   -0.20676548630931    2.02531985450966
H         4.44728526728930   -1.09176209294536    2.21042728408879
H         4.47410588886954    0.66690148503119    2.14200733616514
H         3.48914817006178   -0.24437822174752    0.99462040915342
C         0.82112821082678   -1.22650418925263    1.49020957115275
H         1.47491051314813   -1.03604110122688    0.64193176502250
H        -0.15052533889219   -0.77731621813917    1.28527184452239
H         0.67943939402535   -2.30499475420123    1.58230369898597
C        -0.65751392500000   -1.31509486074885    4.20873164813080
H        -0.59110298774582   -2.39388736091654    4.05317011322416
H        -1.37267655109436   -0.91379256393853    3.49171093250390
H        -1.03806604045857   -1.13396981901424    5.21125644218822
C         1.01144679535048    4.75724247578540    3.80221052836240
C         0.24615092615952    4.16238096556378    4.81920281993338
C        -0.61023970803212    4.94635476902489    5.58214166891096
H        -1.21478317402895    4.48217448385670    6.34747495023292
C        -0.68819454374212    6.30899649141540    5.36979955841031
H        -1.36069268620763    6.91434963286129    5.95961937897658
C         0.10648888613504    6.89742505919843    4.40551789982846
H         0.06137589025143    7.96603708510224    4.24967746843390
C         0.96110349546217    6.14055518465113    3.61128307100931
C         0.38687115833406    2.70770679228346    5.12778287519512
H        -0.58512043888713    2.31768609832535    5.44805293676414
H         1.06147272475033    2.61781894636639    5.98887410071000
C         1.79869576924975    6.87856231176509    2.61073526636192
H         2.56048788763492    7.46188346082346    3.13032255013514
H         1.18472932725323    7.57694776977350    2.04381147944033
H         2.28499873634396    6.20050974747296    1.92221567207287
C         3.74796603832523    3.69913575431561    3.19375442433205
H         4.14128286817391    2.68545856878203    3.05733570397965
C         3.88440541750232    4.07114797571524    4.66657891342960
H         4.92137011576525    3.99279175953468    4.98963213121342
H         3.27647759525169    3.40699882814006    5.27683506865647
H         3.54556259144319    5.09133875272445    4.83351107761067
C         4.58206614537732    4.62813338025781    2.31934085726963
H         4.28854307192143    5.66587342780253    2.44171133131178
H         4.52078622025790    4.35883604967378    1.26753367129253
H         5.62664809878426    4.54437698089915    2.61988235870039
C         1.70782889519020    3.83709668359923    1.01899697961319
H         2.43870629297876    4.59564285464819    0.71915936719660
C         0.30328431630409    4.33155710272809    0.69716575421499
H         0.20997495016404    4.49908839800801   -0.37469052312226
H         0.07926246971864    5.26022488847675    1.21435768618773
H        -0.43019966734020    3.58890298951343    0.99889089945268
C         2.01428267205194    2.54411324115756    0.26957385909469
H         1.30066941571063    1.77814014001523    0.56561457803244
H         3.02155559915549    2.19569259949261    0.49158890969202
H         1.92934531627172    2.69826680230288   -0.80483984667660

