43
CSD_code = CUKKAV | q = 0 | S = 0 | Stoichiometry = C16H16Cl2MoN2O6 | MND = 6
Mo        1.54275413282872    7.74420554601325    1.17456059222781
Cl        0.88175163470662    9.71977096530824    2.23793496077869
Cl        0.88864756338260    5.69627638053978    0.24730697802057
O         2.59859789912948    7.18706721955840    2.30060723161621
O         2.29050158488049    8.39082959993890   -0.13301689893917
O        -1.41796130115906    5.06024276863945    6.62914462824727
O         0.74002916141192    5.34876835018203    6.08098381423340
O        -0.63167509616552   10.06682562338121   -3.51384179213722
O        -2.87040075950702    9.90280265830854   -3.47311361279414
N        -0.14528104835929    7.07650355846532    2.51869832446243
N        -0.45025222699390    8.21372334123241    0.21133859690330
C         0.12655387646206    6.51062573799128    3.68219789272124
C        -0.87094993751770    6.08218243335107    4.55367928740634
C        -2.20004240647307    6.25995319544113    4.18060519984492
C        -2.47957511482261    6.85168195129392    2.96330901745483
C        -1.42222673508249    7.25245725964964    2.14605318851257
C        -0.56166579790217    5.44143710694253    5.87119585691192
C         1.16843800240052    4.74160624312774    7.30600504982342
C         2.62702545795881    4.35410273325988    7.15883005768432
C        -0.49633092164159    8.79300210041490   -0.97536733150554
C        -1.69570811541544    9.08341214100651   -1.62358408668895
C        -2.88893403432772    8.74964900907070   -0.99080813801877
C        -2.83585945050591    8.14698837868523    0.25260936488513
C        -1.59458904524782    7.88913787129337    0.83374344192465
C        -1.65058896177705    9.73871296559190   -2.96785810359451
C        -2.96150233541500   10.50599832394885   -4.77013115863491
C        -4.26885428607243   10.07928074230689   -5.41075753648784
H         1.17738634838950    6.39681178268695    3.92306997848323
H        -2.98321428986913    5.93266845852963    4.84850051860128
H        -3.50232879621725    6.99823902546877    2.65836467856551
H         0.53381100715365    3.87224709276101    7.50942491241229
H         1.02911222175114    5.46607980003623    8.11595633578339
H         2.98395598564379    3.92072185673111    8.08831463583141
H         3.22365727357601    5.23039819490188    6.92159421298072
H         2.74555884876523    3.62814442188843    6.35917632046902
H         0.45499501410326    9.03782728815904   -1.43718586992652
H        -3.83329738625904    8.96052057452114   -1.46797247166317
H        -3.74855752015038    7.88081379632975    0.75934284483699
H        -2.09804111306159   10.19162377401086   -5.36524070627783
H        -2.91839603991721   11.59331198735912   -4.64516447855391
H        -4.36032255890749   10.54305599697622   -6.38822354353041
H        -5.10895826010517   10.38613496685817   -4.79350016212323
H        -4.29716247368438    8.99915677782278   -5.52818203073085

