66
CSD_code = CUKLID | q = 0 | S = 0 | Stoichiometry = C30H26CoN4O4P | MND = 6
Co       -2.60305395225860    2.11011124792486    3.23587994389428
C        -4.35774646417293    0.23662437542046    4.30047054997252
P        -0.67834288028834    3.36541101260265    3.47147417882256
C        -3.55149414028294   -0.05709874347038    5.39638344756804
N        -1.64964636632100    0.56389065178234    3.82210523886377
C        -0.99173922329473    5.12469558412427    3.11172693274221
N        -2.86087013314278    2.32065655764458    5.11511714509395
C        -1.88992532837320    5.83894961879640    3.90487524330310
N        -2.26017998406004    1.96059729334763    1.44088136302170
C        -2.19201615989562    7.15231109124714    3.59500671148708
N        -3.54322002403945    3.61440515189767    2.75032285660617
C        -1.62444436576938    7.75817000446187    2.48629477415820
O        -0.68213901989376    0.04220821138237    3.22304157793510
C        -0.76191728085967    7.03997709814993    1.67507143114663
O        -2.91841557679841    3.43301671613654    5.68974715582574
C        -0.45019402881906    5.72761557859280    1.97891499238725
O        -1.80029504250980    0.94437576723110    0.88604691505609
C         0.06261597693855    3.30524229195795    5.14004019169633
O        -4.36200276570391    4.19188902338858    3.48866614052824
C         0.75513891849589    2.13271856035136    5.44329993764565
C        -1.11928711653150   -0.92158063168743    5.72525989666425
C         1.33349905071676    1.96711555472926    6.68725863169016
C        -2.01986200824592    0.08604244403680    5.06352450915305
C         1.22353300894578    2.96711257527690    7.64136116308841
C        -2.74387338387792    1.16243362517648    5.88002520131898
C         0.54659984468274    4.13598244009883    7.33853086097205
C        -2.49361257065886    1.32894570033108    7.35247914137704
C        -0.03337818623393    4.31033297650530    6.09301381967377
C        -2.00199480680339    3.28007546983653   -0.53835999350412
C         0.86362371574635    3.05178437465941    2.53880635296873
C        -2.48027011434453    3.11965444892003    0.71423704172664
C         1.94047100925262    3.89302681381931    2.82782726800956
C        -3.30621705356560    4.06817690929359    1.46517013244392
C         3.15140167415143    3.71884568407212    2.19015209396290
C        -3.83848177718414    5.21910503757434    0.99928022790999
C         3.30541447735951    2.69859049222961    1.26262149109646
C        -5.30841390766076    0.34578187366075    3.31502526402441
C         2.24578816060078    1.85480534259242    0.98573124045415
C        -4.16686008625450    1.07362529479347    3.12710383532195
C         1.02398287837258    2.02421685900238    1.61992234260812
H        -6.27181341044308    0.05509676092749    2.96991261319199
H        -2.38698052013570    5.35471366773136    4.73338914496353
H        -2.88681730993214    7.69813157560642    4.21561906912846
H        -1.86604799720855    8.78274087026316    2.24489926569656
H        -0.33374887762770    7.50015368106090    0.79657497851070
H         0.20946000486883    5.17002948770682    1.32924528351629
H         0.84794484125206    1.35848119928492    4.69247509421037
H         1.87356103539700    1.05909511038671    6.91452612480736
H         1.66882117963554    2.83552493859383    8.61639695798365
H         0.46606150706006    4.92034351632475    8.07645624827953
H        -0.55213517408289    5.22868561796718    5.87003870457949
H         1.81940620002513    4.68631118092125    3.55454610819336
H         3.97804716878805    4.37600890197717    2.41788583372229
H         4.25417313411714    2.56174899911402    0.76487668385283
H         2.36386159044230    1.05159296121271    0.27408687253814
H         0.22454690332897    1.33208947540580    1.40775955345408
H        -0.79940959562220   -1.63811790782466    4.97006141493399
H        -1.65088907319772   -1.44270590390671    6.51430779832298
H        -0.23600527283011   -0.43467330692426    6.13511461190163
H        -1.51001918803311    1.76773486031431    7.51882303432950
H        -2.56698349465123    0.37400082095700    7.86106485367013
H        -3.24238883082302    2.01094426927940    7.75243869711689
H        -2.17009843958813    4.17723816838527   -1.10177701059349
H        -1.42385078909239    2.49322862633095   -0.99025215342375
H        -4.45455186310128    5.81635611606924    1.64786019463891
H        -3.66251869598425    5.56710593492695    0.00023277377529

