62
CSD_code = CUKMEA | q = 0 | S = 0 | Stoichiometry = C24H35P2Re | MND = 9
Re        1.42031515537926   -2.08462649469235    3.37244400033262
P         0.56102915415988   -3.33254270014720    5.25730695507252
P         1.57956871954779   -3.70311103276478    1.58481449834321
C         3.24087659796991   -0.32776828339620    3.85360671384489
C         2.22272304355514   -0.32531630104828    4.81696711785318
C         0.81665294352127   -0.22986545687803    4.56500708891851
C         0.19190643042291    1.01896035839112    3.96712546582394
C         1.00207773396595    1.68498351193516    2.86817152363867
C         1.04591161290516    0.81243512865588    1.62561716757974
C         1.80600920180248   -0.49423203819524    1.76945022848461
C         3.03953669798264   -0.59626165655829    2.48550419475475
C         0.91627797935427   -5.12607463828942    5.44688544512762
C        -1.25176896232286   -3.35202221714224    5.53172908259348
C         1.22460933052310   -2.73944041614424    6.84714498401447
C         2.57432048059109   -2.96855635916126    7.10128049723917
C         3.15996371433945   -2.50396878964406    8.26289916241069
C         2.40443686112440   -1.79177822652992    9.18170643218364
C         1.06552228279743   -1.54768587119725    8.92927944233819
C         0.47560101025870   -2.01664042763282    7.76735108906322
C         0.61416348281512   -3.42772204790129    0.04096396312342
C         3.24564889136226   -3.98314723704943    0.87692141535595
C         1.00775219118821   -5.38646353208205    1.98519717343735
C        -0.36093991142230   -5.54256551418744    2.19457524214510
C        -0.88608394920871   -6.78001711823384    2.51257665931918
C        -0.04500513967888   -7.87589053849124    2.64183309445468
C         1.31809687533613   -7.72168273010669    2.46032695788923
C         1.84582084381872   -6.48301109165198    2.13288957509326
H        -0.12381427184138   -2.18308083012163    2.90851253264570
H         2.67045152112955   -3.07453304018645    3.82914943834442
H         4.26568308719167   -0.35615663162054    4.21686839464561
H         2.54868692591054   -0.48184907084570    5.84683661398181
H         0.23904200833459   -0.48526686966265    5.46614682439377
H        -0.80556333490067    0.77760319975493    3.58645711244668
H         0.05650239545006    1.73546896820392    4.78956745475952
H         0.54193026670897    2.64526262193203    2.61478665596493
H         2.01746469091184    1.89100068061440    3.22105404558435
H         0.02352905916026    0.59445455064231    1.30074169159418
H         1.52581224619796    1.37767092184544    0.81406226871731
H         1.89920107597973   -0.92652838291349    0.76333225142454
H         3.92313864869106   -0.93916584584630    1.94297116537060
H         0.33431625962541   -5.67460360201673    4.71057886334660
H         1.97112210365058   -5.30761192355053    5.26037599418802
H         0.65115481222404   -5.44824985297271    6.45366871536938
H        -1.63713218564942   -2.33605734640934    5.48313788219113
H        -1.68498447006206   -3.92309759380713    4.71212556751226
H        -1.50059736098342   -3.81638244967192    6.48474481585156
H         3.16175162928912   -3.49580729425525    6.36238096198646
H         4.20861713591254   -2.68642080984617    8.45100605440430
H         2.86112076719622   -1.42161857678188   10.08814662858129
H         0.47643053461921   -0.98512424492188    9.63975312343191
H        -0.56845347266706   -1.81254915831922    7.58070038582759
H         1.05719091815642   -2.60652187067670   -0.51718336200840
H         0.61847774547669   -4.33157944980904   -0.56624493098462
H        -0.40465373778342   -3.15879048056375    0.30725370701197
H         3.21632591718545   -4.76530304818601    0.11927288071051
H         3.57527168930156   -3.04765583808917    0.42709498914940
H         3.93287628422903   -4.24498078188098    1.67809167668870
H        -0.99453097322133   -4.66953259080858    2.12271375458050
H        -1.94959953906062   -6.89581972811213    2.66557017586028
H        -0.45200178916712   -8.84469790712112    2.89167770138757
H         1.97553831686066   -8.57187552456988    2.57281933159667
H         2.91107182428187   -6.37728847951835    1.99695346343815

