29
CSD_code = CUKNEB | q = 0 | S = 0 | Stoichiometry = C8H12Cl4N2S2Zr | MND = 6
Zr       11.30548170867955    1.87137890861664    2.10902675663741
Cl       13.50226008918183    1.51503451696437    1.32553429008927
Cl       10.72723795945740   -0.34870877026049    2.34133304719835
Cl        9.11304457026999    2.73387889618557    2.20928770238925
Cl       11.86079365093367    2.24450797681311    4.31594992876834
S        10.82910181862567    5.67132678291330   -0.48973741863179
S        11.81700980252484    3.34654677383421   -2.25362324122591
N        11.66536396088119    3.98906887623957    1.48600207257000
N        10.97399573643471    1.89705911241546   -0.10322484252487
C        11.32709526208732    4.19461026465058    0.26817894480315
C        11.66441760059806    5.04725804864612    2.47735019830236
C        10.54970176052366    6.06317163819633    2.23303567548061
C        10.78168186513135    6.81759584686789    0.94025909865630
C        11.31562222884400    3.01386723786423   -0.62815174781302
C        10.97530216591614    0.65466766664386   -0.84978452558877
C        12.07602924168751    0.61646340555640   -1.90872206451578
C        11.83397080129073    1.66283182173421   -2.97748052456837
H        12.65045281878316    5.53138277045832    2.45740189811403
H        11.53927595792112    4.56404545739727    3.45595098634692
H        10.52131422622985    6.77400720235569    3.05914042632425
H         9.59775682453975    5.52493372190572    2.19913158352067
H        11.72444236664626    7.36433041522902    0.95143365104675
H         9.96843531703389    7.50802031801759    0.72096223353742
H        11.11602991556474   -0.15344729763354   -0.11839455842158
H         9.98330727709924    0.53262902138377   -1.30646423882429
H        13.03573478302874    0.78923025664651   -1.41235799070734
H        12.09470768181419   -0.36924982932415   -2.37413121541505
H        12.63307279300605    1.68118672020037   -3.71729712199715
H        10.87925981526542    1.51527223948334   -3.48240900355334

