74
CSD_code = CUKTEJ | q = 0 | S = 0 | Stoichiometry = C30H32BN6O2PSeW | MND = 6
W         0.06768999714687    8.70801255602270   11.97405479528213
P        -1.23703262057573    5.66634693837295   13.38150486687128
Se       -3.31141782906065    5.99105258074858   13.58314078506701
O        -2.90902013974586    8.22911287960953   11.16154269332820
O         0.49735513056436    6.28999604591769   10.03847579238970
N         0.45804204274387   10.37373779332101   10.58951689969514
N         1.19535633561097   11.42975010426199   10.98164641750796
N         2.14802176007587    9.01950503893149   12.50278012909985
N         2.67219923390375   10.25535312607066   12.60409684375892
N        -0.20403826560558   10.33076426259488   13.36911118012312
N         0.62252070226455   11.39457412900852   13.39851638866823
C        -0.40375757216225    7.12639142569173   12.93286531833619
C        -1.83491410132249    8.52676022251381   11.44215096436721
C         0.40390748464747    7.24737702690572   10.68308096677761
C        -0.77563731279811    9.62874085277440    8.57296512860837
C         0.06896775895137   10.58853131957249    9.33331520462940
C         0.57195085292434   11.81860396182608    8.90575186976629
C         1.28201868998360   12.32512547526535    9.98085355122226
C         2.02212536891279   13.60974168650108   10.07381663938587
C         2.89865466295609    6.67171332852082   12.72700708763910
C         3.11926578387415    8.14116377287153   12.75227929020779
C         4.30111809682886    8.83498325703829   13.02337164820328
C         3.98005099440640   10.17621357214769   12.91618461869760
C         4.86497530807332   11.35593273638747   13.09562396135112
C        -2.17403061689298    9.48788595510348   14.60161295532210
C        -1.10509939898296   10.48245564721538   14.34025952686055
C        -0.84765053436551   11.68047411659617   15.01263780319055
C         0.25344183219536   12.23444640557005   14.38540233209346
C         0.94935194532352   13.51095142826219   14.69159410693849
C        -0.49925590811841    5.08962934202446   14.94439968808739
C         0.26937428069656    5.95818048818372   15.70687480276542
C         0.75130557710347    5.54325948208860   16.93534952155270
C         0.45786992406469    4.27195573884708   17.40130475768860
C        -0.32346796166799    3.41229559585767   16.64412006573101
C        -0.80894353396607    3.82119997562681   15.41655522489592
C        -0.79706655926208    4.40323687865407   12.14162312403942
C         0.43264689749386    3.75910868976650   12.19445711378175
C         0.77300711881604    2.86588242397834   11.19648535134289
C        -0.10263920920874    2.62516854921079   10.14927691007095
C        -1.32483944925308    3.27459542043822   10.09754515219466
C        -1.67324376248942    4.16860327268892   11.09303153744738
B         1.78666448805689   11.49788596275818   12.40169105778815
H        -0.79450986127433    9.90800964379331    7.52234105323735
H        -1.79860737585732    9.63630393064977    8.95133171656914
H        -0.38866368455388    8.61308578124518    8.66696472753438
H         0.43692855542493   12.27673946135452    7.94736383516660
H         1.94106654482057   14.14254235210847    9.13031261137395
H         1.61353699676240   14.23412922551045   10.86663070373743
H         3.07471194150728   13.43492376826764   10.29027287877222
H         3.72110071973463    6.16246035397902   13.22331469199088
H         1.95910219662174    6.42537898410265   13.22688472883045
H         2.83208883802526    6.31080153902403   11.69986191801480
H         5.25767476277317    8.41657240848389   13.26151803202229
H         5.87146335853481   11.02054492740438   13.33040831180113
H         4.50687117719779   11.98857698081608   13.90617846964183
H         4.89683286467223   11.95622589063789   12.18785584914935
H        -2.70915969603515    9.73973679828759   15.51294299624334
H        -1.74968130822744    8.48547892357079   14.70146212449574
H        -2.88601439687168    9.45446578185370   13.77617795930054
H        -1.39186335857557   12.08721095227379   15.84027293944521
H         0.45562410538351   14.00039253856167   15.52656838678573
H         1.99031731387317   13.33018310240615   14.95521202195987
H         0.92989327335558   14.17808286965534   13.83129354163433
H         0.48424467311105    6.95106125493556   15.32603827403324
H         1.35270949210821    6.21368185138305   17.53215971100356
H         0.83294532055660    3.95154434717171   18.36225762775079
H        -0.55800005036973    2.42554748595520   17.01553793803744
H        -1.43204414374029    3.17110905693995   14.81650782593078
H         1.11108567344341    3.95419927351770   13.01438963811360
H         1.72638897974123    2.35860194014812   11.23284491818256
H         0.17172858130919    1.92933944368934    9.36988001387601
H        -2.00460587063010    3.08766284634103    9.27950041477738
H        -2.62381708892727    4.68515555031782   11.07378078861892
H         2.40152397396697   12.48995126985312   12.55975927921673

