79
CSD_code = CUKZEP | q = 0 | S = 0 | Stoichiometry = C30H40Cl2N4NiO2 | MND = 4
Ni        0.00030821984824    0.00089199957856    0.00030409073079
C        -1.60725813433675    0.57989937156511    0.81036851534120
C        -2.95632676304280    1.84407628282189    2.04889037331819
H        -3.21684042314642    2.64196080099865    2.71229778459909
C        -3.71924709054426    0.91622938818695    1.42419590884441
H        -4.77441233253765    0.73489133904165    1.45356678610060
C        -0.51721489031392    2.39576365097143    2.05338021092604
H         0.37982144905432    1.77329112981740    1.92496247373014
H        -0.61809351934463    2.68948575433329    3.10054447807071
C        -0.38109158756521    3.64238017428408    1.18119000741484
H         0.59738527056569    4.11142382321564    1.36569489453876
H        -0.43275264817560    3.35611069059551    0.12071106728218
C        -1.48002220392899    5.64232359009143    0.64766746125689
H        -0.55599599391558    6.23115645960176    0.70376695070612
H        -2.31950105154896    6.25191983477105    0.97597624531959
H        -1.63493858592172    5.33025496355977   -0.39212693264940
C        -3.24406293656686   -0.96725306419835   -0.13576114403907
C        -3.21688701375792   -2.24520185833085    0.42316325407079
C        -3.50006594091051   -3.32647366811586   -0.39980396043967
H        -3.46957291766893   -4.32246898626798    0.01869078684160
C        -2.89417691562222   -2.44451180648895    1.86954231800025
H        -1.84024135062468   -2.23143604794399    2.05261078852100
H        -3.09332350646644   -3.47009805265756    2.16794063244399
H        -3.48183651474063   -1.77448821669764    2.49601906181249
N        -1.66414433420351    1.61558664067013    1.66601868290281
N        -2.87227644575290    0.14748169003692    0.66896092068373
O        -1.42695832293915    4.53303211478075    1.50560970675815
Cl       -0.35374343576853    1.30700030499907   -1.62335079861695
C        -3.61659146660363   -0.75743252806251   -1.46485204089186
C        -3.89190186744324   -1.86717958368477   -2.24934988125322
H        -4.16692210105111   -1.72264223456818   -3.28426465268408
C        -3.71234867051801    0.62588954115111   -2.02466024267992
H        -4.31213735722798    1.26682991413453   -1.37965236539251
H        -4.15766544024887    0.60744909121805   -3.01552160211246
H        -2.71847806815167    1.06896836567065   -2.10139958953731
C        -3.81901670657903   -3.15582717682305   -1.73802820590201
C        -4.11736077883171   -4.33313291653441   -2.61681670554183
H        -3.61299029042023   -4.23272363576996   -3.57626379611549
H        -5.18901465446136   -4.39479131302939   -2.80840222843575
H        -3.80102962950591   -5.26134949817037   -2.14664270292662
C         1.60734201257421   -0.57967137668384   -0.81030925488973
C         2.95651983748720   -1.84375875261758   -2.04919860688517
H         3.21711591386115   -2.64149068173864   -2.71278879293519
C         3.71942072137603   -0.91608939398381   -1.42428583784113
H         4.77459315773501   -0.73474820098570   -1.45360364410888
C         0.51743243566080   -2.39535582885803   -2.05396355747391
H        -0.37963963482455   -1.77276201543256   -1.92599981908185
H         0.61869604077308   -2.68930846363301   -3.10103409358914
C         0.38097491012194   -3.64194139469236   -1.18179584327597
H        -0.59759706631214   -4.11077743183359   -1.36635827282520
H         0.43255836295947   -3.35549641325233   -0.12135077525979
C         1.47924813463739   -5.64224151704618   -0.64800941501312
H         0.55496932122314   -6.23066856119858   -0.70412579718128
H         2.31847541095202   -6.25221164276702   -0.97627200345106
H         1.63425372378325   -5.33022762002509    0.39178182345241
C         3.24435100501139    0.96715432412352    0.13586283060046
C         3.21695504725980    2.24520582054450   -0.42274185592854
C         3.49994468489515    3.32632406955705    0.40047176132868
H         3.46938160452934    4.32240434438493   -0.01780663419612
C         2.89372940718669    2.44470598928838   -1.86899156952345
H         1.83971645964972    2.23146665971893   -2.05182898823251
H         3.09278333832685    3.47035038321215   -2.16724602375093
H         3.48145421157658    1.77491692876783   -2.49567197339996
N         1.66431226828609   -1.61528130279522   -1.66626739531397
N         2.87244160505183   -0.14742484929289   -0.66899857482425
O         1.42666217015382   -4.53291447586447   -1.50594360250876
Cl        0.36071644640686   -1.30706220208766    1.62114926528595
C         3.61669447150018    0.75708827133003    1.46493649360963
C         3.89180385555336    1.86666744934057    2.24971697261949
H         4.16684954612308    1.72191682747349    3.28459807106713
C         3.71195145031577   -0.62638472399166    2.02448028640874
H         4.31168205865050   -1.26726223881494    1.37934604498694
H         4.15733889361244   -0.60825984804524    3.01532810995561
H         2.71787126247162   -1.06919271531505    2.10102665763733
C         3.81879778912532    3.15542326940864    1.73868462324107
C         4.11708845874021    4.33256832879365    2.61772773168999
H         3.61247068727894    4.23199312366077    3.57702718037499
H         5.18871094432229    4.39418649537516    2.80960980819038
H         3.80085600288711    5.26087303722737    2.14766812003273

