51
CSD_code = CULGOF | q = 1 | S = 0 | Stoichiometry = C16H30N2O2Rh(1+) | MND = 6
Rh        0.24388710947679    7.08993487135155    6.66986113820880
C        -0.95654691293080    5.41770157009621    6.08696457760298
H        -1.00984108082623    5.37453236440387    5.00026199525416
C         0.19421600217653    4.93497197482120    6.69656330880776
H         1.00247194929237    4.59415123875910    6.05085722010070
C         0.23026857571028    4.35364488966753    8.09099393105982
H         0.97208063298492    3.55540912634421    8.12204706336583
H        -0.73557545553073    3.90565170126715    8.31843884406153
C         0.60412273766858    5.41414796673473    9.14017603180807
H         0.20742387792167    5.13448497605602   10.12010999737049
H         1.69191886235468    5.45468897283908    9.23490960253011
C         0.11426984473951    6.79476729625561    8.78532692843094
H         0.66961733642198    7.58165650701391    9.29327825792680
C        -1.15411486741484    7.10287692774506    8.31129236459177
H        -1.49887654979863    8.13008912257720    8.42190316275599
C        -2.26613043787725    6.09138362254457    8.15694151352631
H        -3.21832456513887    6.57805842150719    8.36879852535486
H        -2.13695362378276    5.30026280818616    8.89360306818038
C        -2.31504382780979    5.51276028897610    6.73293649023398
H        -2.77730898134759    4.52176258045348    6.74180927285886
H        -2.94277329835315    6.15324186537855    6.10869189941364
N         1.01877851552790    7.30224703468066    4.61320326610025
H         1.76465572925803    8.00220098731968    4.69551632186416
C        -0.02961554311742    7.90765256323724    3.76741726559757
H        -0.49405554772135    8.75260727244487    4.28520492210977
H        -0.79551475209697    7.15402776895187    3.57225126307495
C         0.56476370444626    8.36250569364002    2.42831340470167
H        -0.21463092103235    8.74548586385843    1.76884065095289
H         1.31130130109755    9.15784045344580    2.59750778701994
O         1.15574049066608    7.27931593828836    1.75594069849312
C         2.17713709639187    6.69023726143544    2.52335622368598
H         2.99079436584276    7.41540628935166    2.69326916948168
H         2.56385135890483    5.86012773333271    1.93196821263970
C         1.63743652084746    6.18877146068481    3.86933503667744
H         0.88415071549746    5.42062119371812    3.68554655677870
H         2.45213331428776    5.76451603809020    4.45919992857877
N         1.00075094057139    9.14675363172051    6.96128013148607
H         1.01865124114278    9.54744389247966    6.01674876200998
C         0.28526755750578   10.14833257538413    7.77422622633274
H         0.27670806604154    9.82167863861954    8.81559949028757
H        -0.74118950376077   10.24299757575497    7.41469363918544
C         0.99497009453622   11.50562779885659    7.68296539325104
H         0.94843540580135   11.88368452916423    6.64773245212332
H         0.52076687362842   12.23138931982917    8.34386833573591
O         2.33402015293801   11.40560513129868    8.10245222008463
C         3.04984029672752   10.47824649372992    7.32619334543000
H         4.06398336841041   10.46033222560195    7.72644094926162
H         3.08722454360608   10.81164042962632    6.27458159215217
C         2.40532751114866    9.08891862211349    7.41385286373497
H         2.96771295829579    8.36865519399675    6.81161830320754
H         2.42121681661738    8.76145129636039    8.45551039450257

