38
CSD_code = CULRIK | q = 1 | S = 0 | Stoichiometry = C6H21CoN5O4S(1+) | MND = 6
Co        0.15583754361140    2.11294569495744    5.34601848620336
S        -0.71650424414539    2.25553416879220    2.50490499084064
N         2.08427536778950    2.01431542620676    5.51513956559281
N         0.19997089443782    0.24798241669789    4.85519261030837
H        -0.38129984471236   -0.45586884317312    5.30827601255456
H        -0.26075576194217    0.37022856412176    3.87792746474864
N         0.08178659333422    1.69850822355041    7.33382703621123
H        -0.65656914941279    2.15498653454093    7.86641737487738
H        -0.06307499320567    0.69790982701890    7.46863873356290
N         0.33645019087461    4.07570991614901    5.51762214337730
H         0.08327341996969    4.27212030839658    4.54079248175124
H        -0.25605792484008    4.67029383116442    6.09602629697529
N        -1.78851495415641    2.21268081951134    5.15675533144557
H        -2.21375482166258    1.32798466055808    4.88041914874009
H        -1.90800326170760    2.77108128430874    4.22806225098011
H        -2.39357738500047    2.64204076969002    5.85397021489942
O         0.42708883854250    2.48291564611010    3.55462914169367
O        -1.71514870423910    3.27440198727154    2.85712597010096
O        -0.07061678400589    2.41180329388610    1.24427362347249
O        -1.20071935158983    0.89971202563413    2.82182100547728
C         2.51058647675029    0.94441663327262    4.58498096371517
H         3.55808366933953    0.67482745565905    4.74797123020466
H         2.38263924261412    1.32602066269501    3.57249016430468
C         1.57961000907028   -0.25604797960701    4.75159584281522
H         1.69090595103149   -0.92290788013283    3.89229960559558
H         1.82943726658057   -0.82815354611884    5.65222638067508
C         2.48060334921713    1.68609659151213    6.90313030855741
H         3.41648317046291    2.18763389084947    7.16393626302906
H         2.65160687642646    0.61165778175362    6.97126369875125
C         1.38905963946231    2.06475750316083    7.90695075584778
H         1.57433821753559    1.55180367150796    8.85657885672012
H         1.39003886176618    3.13543744654090    8.10520835997744
C         2.60253923964181    3.32837566098774    5.08629749040307
H         2.48914102251666    3.37959416256672    4.00314816911311
H         3.65901620192501    3.44176032222700    5.34680971029773
C         1.75500789292358    4.44157102938711    5.69815984029596
H         1.97000446478992    4.56256390801273    6.76187853239711
H         1.98871278000587    5.38900613033271    5.20303394348607

