40
CSD_code = CUMBES | q = 0 | S = 0 | Stoichiometry = C16H15N3O5Zn | MND = 6
Zn        0.80628503089733    3.81922696469013    1.76808804284593
O         2.65020795575277    3.36635442545280    2.18921545208861
O         3.92429455946205    1.71610419778898    2.95233053040718
O         0.40430198846360    4.17988124138000   -0.09687337338793
O         0.09123299809250    3.13830360939228   -2.03063571906885
N         0.82296021048108    1.76985459460407    1.12376796895922
H        -0.02068932004044    1.20011137844556    1.13352975149664
N         0.48924106591846    3.72617832717813    3.87497303967141
N         1.18209156421075    5.77628562143211    2.25999121176924
C         1.86061133882485    1.11115556443550    1.91561614589248
H         2.37140944656859    0.31831236091247    1.35890696088059
H         1.42256526489893    0.66875343767979    2.81419955493417
C         2.93210992893852    2.14572675370540    2.39850546851713
C         1.22039900592305    1.94835840161274   -0.27847148763761
H         1.02579567646573    1.06124107253652   -0.88953299258937
H         2.28781508547644    2.17935439803603   -0.30964053911741
C         0.50276342630462    3.18222998453437   -0.89001245933480
C         0.16189041966244    2.71654228255332    4.64657084486081
H        -0.38349404154651    1.90989769365070    4.17723373597937
C         0.47948503231694    2.65644775030950    6.00621685939905
H         0.19492865310330    1.79367144496016    6.58734322359470
C         1.16180390733423    3.70408770165283    6.57430953711857
H         1.43544114206455    3.69344166177115    7.61928915688077
C         1.51027054975051    4.80552760810926    5.77569252724256
C         2.21117160526725    5.93748713438531    6.28332482603205
H         2.47565034848809    5.94376949268996    7.33042552748322
C         2.54407769213893    6.97260531041055    5.47605230273014
H         3.08019288431698    7.82679562233453    5.86260581997664
C         2.20885150719498    6.95850015280605    4.09140096477857
C         2.55457444937340    7.99465514332057    3.20712786359794
H         3.09460471408216    8.85370578294954    3.57869946599461
C         2.20752092003053    7.88961962360275    1.88219046443326
H         2.46427223009662    8.66279652508204    1.17547673905275
C         1.52079071346186    6.75079751967526    1.44799296426703
H         1.24151812554774    6.62052887927476    0.41214595861287
C         1.14983649746418    4.76194848833445    4.41095612507524
C         1.51178738322068    5.85423343701312    3.55556001281814
O        -1.53374076322644    4.22750266885162    1.73422438568938
H        -1.35828017027368    4.68742649573989    0.90222581435201
H        -2.08534902650482    3.47737924670274    1.49797732369280

