45
CSD_code = CUMBIX | q = 1 | S = 0 | Stoichiometry = C14H24AgN4O2(1+) | MND = 2
Ag        1.90604387505975    3.73127653312451    9.56511394667497
C         3.59519720810648    4.23246517311655    8.27828905054807
C         4.89976070270781    4.43182330087679    6.47553455757959
H         5.24832431946453    4.22518698275558    5.48562899738442
C         5.32345815703378    5.33426841399640    7.39287530918635
H         6.12255098047121    6.04533414722401    7.35453521196847
C         4.66161191664327    5.96313481579819    9.68962146822550
H         4.64817705164002    7.02989117698012    9.46257241659225
H         5.60741581529280    5.72264728134539   10.17860382368417
H         3.83807329453170    5.72714300490187   10.36480368615185
C         3.08035659550633    2.75431493250111    6.36509304740443
H         2.80022984410279    1.97591388913873    7.08185633715110
H         3.69003035184825    2.32373988561848    5.56898294865172
C         1.81460416285851    3.36103068376497    5.75316236189026
H         1.22718274836589    2.57138922649279    5.26124870059478
H         1.19445413638032    3.80507527477648    6.55833719123109
C         1.12843313605581    4.92955538844457    4.14244983350867
H         0.56847980173444    4.18083585575491    3.57149343703831
H         1.55981777978487    5.65874082370866    3.46119124368642
H         0.44399400726725    5.43339325222494    4.83521543859681
C         0.19250068200419    3.02420814632506   10.70774798739886
C        -1.31033546962935    3.17284244104327   12.35544813265556
H        -1.71554810130378    3.48099225412205   13.29704777438825
C        -1.83137097798324    2.37603970801459   11.39181786672247
H        -2.77083224366123    1.86569208336315   11.34174292360488
C        -1.07091661462929    1.53659296637253    9.19201360559869
H        -1.92709036984389    1.90411274971461    8.62469511919345
H        -1.23574841362658    0.48563133142274    9.43265106495757
H        -0.16881362993166    1.62908339177563    8.58395040121778
C         0.80784242587003    4.43924586291033   12.63607065000515
H         1.84071027920598    4.11144038625227   12.47884653786191
H         0.57155019369436    4.39266699863275   13.70045865805519
C         0.67841972560197    5.88420060945718   12.15133827382023
H        -0.38058141346744    6.18120087191590   12.12245393171767
H         1.20839405903079    6.55009877829547   12.84739230226896
C         1.14200269305810    7.29079952769337   10.32372975391443
H         0.09490430791663    7.59908605065841   10.23975682480365
H         1.58958642632028    7.25658625721986    9.33360917758151
H         1.67660335355490    8.01387965868550   10.94896609663863
N         3.85126324712335    3.76542849260603    7.03778454484757
N         4.51266331390003    5.19627489209035    8.48410962256212
N        -0.07251774498552    3.55505048093956   11.92027557210231
N        -0.89924002325088    2.30314179180195   10.39483132086215
O         2.20572099156020    4.34249844744819    4.83168139185182
O         1.24463741870090    5.98964577849420   10.86297145713111

