65
CSD_code = CUMCOE | q = 0 | S = 0 | Stoichiometry = C20H36I2N4NiO2 | MND = 4
Ni        6.53816208564737   10.18617342509610    4.51456300872442
C         6.30886362858818   12.00132891945930    5.01167297388556
C         5.41269045048608   14.01332955974366    5.34327502055617
H         4.64746431413788   14.75973332944425    5.31173527075593
C         6.70000101503359   14.06216312541565    5.75430544714798
H         7.27428929415384   14.86460038495856    6.16860751332554
C         3.96185040719970   12.26812205781326    4.31212766413766
H         3.11935173486178   12.58338819573499    4.93292084935821
H         4.00104348875714   11.17142950306692    4.28207885620585
C         3.77791459908110   12.80719462530864    2.89429427272839
H         4.68893566223017   12.63242213070442    2.30328638058189
H         2.94403917322989   12.27910293244447    2.40526021077779
C         3.42721088729503   14.79987020576996    1.71248810374538
H         4.36968136550865   14.69163646620277    1.16257064546112
H         3.22673516131731   15.85410483050446    1.89069921911550
H         2.61719757038285   14.36897807930857    1.11143854311806
C         8.57846698475374   12.41591781242301    5.87326725681138
H         9.27992403450134   13.17949268047430    5.52304895779618
H         8.78375548851789   11.48345565252729    5.32796798117492
C         8.74649950724239   12.17492787750150    7.37337912237335
H         8.58356290878903   13.10998002278033    7.91402540534523
H         7.98999865644706   11.46155293290343    7.70653317990724
C        10.13240584066387   11.62584014858094    7.69709510773963
H        10.89323073602007   12.34774463167328    7.38997821609671
H        10.29739640151056   10.70850380879470    7.12592863188704
C        10.27795024182604   11.32643826703700    9.18333013633067
H        10.13640420769527   12.23077774503411    9.77061273616241
H        11.26688213399860   10.92882797931379    9.39823118730015
H         9.53543678241267   10.59596955854007    9.49622208294030
N         5.18959695845584   12.73893769577948    4.89545789092895
N         7.23534182387111   12.81842552302974    5.54179851819429
O         3.50392835742882   14.18650347686970    2.97348699114044
I         5.72756288586802    9.46346048059013    6.75432349939264
C         6.76747383043703    8.37113734204250    4.01682526966748
C         7.66353673678652    6.35920528476261    3.68454537698489
H         8.42878518429530    5.61280512135894    3.71563979758159
C         6.37606458678097    6.31041151001603    3.27401072527987
H         5.80161849305481    5.50802598862523    2.85982643286246
C         9.11466506243923    8.10427973480670    4.71558946572483
H         9.95702759422063    7.78905732829029    4.09459585525560
H         9.07548001571055    9.20096717465470    4.74575082968574
C         9.29888125483175    7.56504925050014    6.13332548560590
H         8.38795340745294    7.73971535399105    6.72451227739677
H        10.13281787133429    8.09310357771169    6.62228842527597
C         9.64974793142393    5.57211920555937    7.31472278128503
H         8.70731428473202    5.68016182443603    7.86475115190538
H         9.85028172670797    4.51793493898727    7.13625298687215
H        10.45978810065604    6.00292533222388    7.91579648074584
C         4.49750918640000    7.95669713166081    3.15625351894473
H         3.79611979567847    7.19343211414978    3.50728811129483
H         4.29281931088729    8.88942298759655    3.70133930708868
C         4.32839378627021    8.19724337798916    1.65619263336231
H         4.48901461491142    7.26164152548448    1.11581420118990
H         5.08584937910785    8.90908684591037    1.32190849189518
C         2.94313759442348    8.74874079018212    1.33378010301391
H         2.18128546814740    8.02882860490440    1.64302313102013
H         2.78094602980710    9.66716948005903    1.90398884670112
C         2.79591115159006    9.04651612538372   -0.15260832048191
H         2.93429542090620    8.14106344562193   -0.73892648380184
H         1.80758286358023    9.44621994500093   -0.36640060695171
H         3.53965330592432    9.77479387527301   -0.46768138215491
N         7.88678826256291    7.63352552872827    4.13248661202688
N         5.84078965521384    7.55410351748933    3.48695122079746
O         9.57288354286661    6.18575768387234    6.05386616607258
I         7.34860976294905   10.90842398789895    2.27438022670694

