91
CSD_code = CUMNEF | q = 0 | S = 0 | Stoichiometry = C30H36N8NiO14S2 | MND = 6
Ni        0.13984801477074    1.41190715880036    7.39984776982340
S         3.42829834090329    3.26225266798089    4.44658069954607
O         1.73504688384860   -0.70394386453051    6.51518132431366
O         4.71779255700117    2.62241386318036    4.43599671495047
O         3.35166027290561    4.65125666941826    4.80234143380568
O        -0.07953834310462    0.22909862496203   -4.66227770910848
O        -1.26863579356957    0.82874206673022   -0.66612712499134
N         1.44194520164809    0.63630745535774    6.38496603519635
N         2.34120261448028    2.51241205719418    5.40186351119679
N         0.56668053381063    2.30696016742869   -0.60320864695018
N         0.85682954101914    1.90690128606789   -1.73349969247209
C         2.88680430286547   -0.93962342391639    5.85451970262524
C         3.34712689293150    0.20250458852184    5.28662642230607
H         4.24051540799799    0.37024657557162    4.72607656772344
C         2.40330986694020    1.21333290720104    5.65701033917595
C         3.40401376471060   -2.32914121557434    5.85170018366964
H         3.43036882521539   -2.71575661260883    6.86788354978381
H         4.40205671484962   -2.34797706817790    5.42692089051302
H         2.75240638611246   -2.97345870627612    5.26332991779998
C         2.65351151644152    3.04290584677909    2.84985775088111
C         1.48890627146755    3.74605492352828    2.57982395365705
H         1.14902820340009    4.47151171157831    3.30193820496614
C         0.81022986039153    3.52037198795105    1.40513192281815
H        -0.09900257832413    4.04966004533720    1.16901123082350
C         1.30285556751800    2.57716963427661    0.48059176021145
C         2.48580651519428    1.86463361971532    0.77726609451378
H         2.85278353394702    1.14110507069691    0.06456978400986
C         3.14851279634650    2.10571979273151    1.95921019107407
H         4.06226269717891    1.58948482826236    2.20956662125216
C         0.11389633601782    1.15500504026294   -2.49833183951275
C         0.51023457077772    0.95905447047497   -3.89388816010330
C         1.72725192399222    1.75199970654085   -4.30855360239076
H         1.97196491848702    1.52371399216594   -5.34215804415121
H         2.56982869138296    1.50759523528815   -3.66681377002792
H         1.52364562624208    2.81552014044322   -4.20792530590088
C        -1.05619835150510    0.54397389028486   -1.82871353065886
C        -1.90660414105234   -0.39353352633571   -2.62502740173302
H        -2.72758867101828   -0.75015361703097   -2.00806044184765
H        -1.30482769557811   -1.22937717736715   -2.97520143092471
H        -2.28763127936916    0.11399459427118   -3.50826769282139
O         0.64046535539082    0.05748841812303    9.18356038797333
O        -1.18108277430827   -0.27348486722615    6.87530403277794
H         1.06539798353049    0.61441791828948    9.84197802268769
H        -0.30029924768411   -0.05559506336217    9.45264990872913
H        -0.62002057932997   -1.05731802019337    6.90135788264730
H        -1.72553503340871   -0.31437183168726    7.69064865977764
S        -3.15109395930714   -0.44055916579816   10.34833497845870
O        -1.45520048134863    3.52764120767818    8.28488408427922
O        -4.44017766531805    0.20011468013898   10.35845104190155
O        -3.07485475758826   -1.82873784545374    9.98942221682560
O         0.33575068014606    2.56592889300036   19.47437405821801
O         1.53606972588853    1.97760766550053   15.47993747662029
N        -1.16204334299107    2.18743684617606    8.41514978143805
N        -2.06218118530542    0.31093578296080    9.39643346075992
N        -0.30038162419774    0.50128051014620   15.40689222892897
N        -0.59307317210215    0.89759059333125   16.53781410091172
C        -2.60809246910561    3.76289603145679    8.94359094652675
C        -3.06937359930389    2.62046155182223    9.51014156860332
H        -3.96380278698718    2.45238169700484   10.06893259305892
C        -2.12444491174941    1.61005074528067    9.14153020949049
C        -3.12538548150699    5.15241053021169    8.94579935915015
H        -3.14670228071810    5.54031577508567    7.92962040452477
H        -4.12578787427143    5.17062953105397    9.36599106217666
H        -2.47617175669519    5.79587534628586    9.53836987748287
C        -2.37877509534605   -0.22522660262575   11.94677669372894
C        -1.21515720153956   -0.92958731322639   12.21791065898380
H        -0.87355120223700   -1.65321179862935   11.49476919545817
C        -0.53915314098288   -0.70689048544092   13.39472059734133
H         0.36939635300507   -1.23699155071236   13.63166105122769
C        -1.03358098328204    0.23432136027914   14.32032715393098
C        -2.21533261048294    0.94833474269068   14.02237357951079
H        -2.58367496044353    1.67038621840865   14.73585854819883
C        -2.87529273750909    0.71031957568237   12.83830335461074
H        -3.78828593367549    1.22738223844955   12.58693392232751
C         0.14825921693479    1.64639404647196   17.30724367584278
C        -0.25236638428518    1.83877314975961   18.70209319514338
C        -1.47160270738716    1.04606626928797   19.11058535620742
H        -1.72063754304806    1.27326549919091   20.14339196657012
H        -2.31131120598655    1.29144846170063   18.46551042420951
H        -1.26798979224314   -0.01742693350455   19.00972779294511
C         1.32101108058490    2.25820782067994   16.64308312147046
C         2.17152739635746    3.19042520429621   17.44547832333161
H         2.99533212253592    3.54705982045022   16.83229157935312
H         1.57095089394665    4.02662330820384   17.79686447363462
H         2.54848712816226    2.67864689908010   18.32799691109102
O        -0.36199050077239    2.76672176675316    5.61647796960348
O         1.46034575387961    3.09810481067907    7.92261634077629
H        -0.78781304053954    2.20997813658898    4.95848181333808
H         0.57852239153143    2.87921354833524    5.34659211066093
H         0.89879595605486    3.88159879546559    7.89582979832002
H         2.00470968781883    3.13842067465640    7.10717386518369

