64
CSD_code = CUMPCO | q = 0 | S = 0 | Stoichiometry = C22H30CoN5O6 | MND = 6
Co        3.03664017931968    2.11257102530179    3.46994186670589
C         2.79772955645489    4.73099083114351    4.10594457590630
C         6.82315362369450    3.94571219824917    1.09695789745777
C         4.40085504814707    4.34510454158284    0.61055704208249
C         5.68412716897224    5.88856335681820    2.17854653383239
C         6.33834114607369    6.07583028981348    3.39283248088112
C         6.52119387934674    7.34484484519884    3.91102441617540
C         6.06249103943506    8.45215310276901    3.21687041715749
C         5.42252078064622    8.27618932511302    2.00305541290739
C         5.23188807500697    7.00449899922449    1.48755805183284
C         0.15531652310483    1.92704997594916    3.86366622024949
C        -1.04302008173117    1.58023892087875    4.46206983545871
C         2.46120147751291    6.18616189908452    4.05482495118764
C        -1.02271834743488    0.85201670484053    5.64034921073296
C         0.20994396010347    0.50313605763857    6.16779396586663
C         1.36079379898179    0.89129958597828    5.50525977790642
C         3.61048784899918    4.15130134284252    5.14621106916995
C         4.21717143195656    4.97748607439111    6.22827083708799
C         3.64030835431939   -0.38255492341217    2.63156160547345
C         4.19764542279611   -1.76867873276631    2.56439559648500
C         2.93324598470152    0.23367021942233    1.54007102163439
C         2.73181134956402   -0.45508796789044    0.23181227749567
C         5.49516047334570    4.47098082452074    1.66897912182625
H         6.69857674076192    2.90242522469278    0.81684255569290
H         7.11591665971663    4.52610655724720    0.22558419229932
H         7.60425742795735    4.01333507718234    1.84989983044861
H         4.72878470014066    4.78799287542920   -0.32535400883840
H         4.20596421676124    3.28838827536630    0.44355350334379
H         3.48170290690849    4.82382890567237    0.93654955212804
H         6.68792982119081    5.21114541277863    3.93434900427859
H         7.02715883352088    7.47188575946435    4.85789597949521
H         6.20478448207077    9.44483944511338    3.61881747250873
H         5.06391147423934    9.13420739898557    1.45271147215907
H         4.72505115696982    6.89430938750818    0.54236851442175
H         0.15145445375111    2.50802256517978    2.95173815156222
H        -1.97304418724009    1.88004217457164    4.00606865237012
H         3.35800555269206    6.77267454039518    3.85830878630684
H        -1.93950961040581    0.56509313985881    6.13262746884114
H         0.28675275481629   -0.06375644428899    7.08184199079086
H         2.32789459356151    0.61191640973914    5.90014171688089
H         1.74921861030974    6.35087394626315    3.24881387403428
H         2.02694159876010    6.51843620648910    4.99600592393665
H         4.52121433180116    1.24361359725989    5.62497862650939
H         1.62422773659588    3.02951090455538    1.29616627023881
H         4.74920768504392    5.81881256019283    5.78974507859199
H         3.44143580961233    5.36563433592018    6.88773320377463
H         4.90521091694925    4.36783306564855    6.80793190943087
H         3.41224391651050   -2.49621393422543    2.36341290165621
H         4.66446163932961   -1.99849432395257    3.51952975253011
H         4.94550891649289   -1.84125383283434    1.77679356847280
H         3.69624870476983   -0.71254727008098   -0.20164813087273
H         2.16631979326174   -1.37499519201103    0.37166950598644
H         2.19306062943058    0.19978809928433   -0.44773027166405
N         2.38451256000037    3.87036933922151    3.22692138106113
N         3.73828438654136    2.87156246939910    5.05866422824188
N         3.72601619006918    0.36979441707793    3.68745139262591
N         2.47567941066168    1.40956181093436    1.81154777648757
N         1.34278433730826    1.59237414307001    4.37036541323311
O         1.58761047361630    4.19569411346542    2.25998679644636
O         4.44785171149617    2.20079033158716    6.00129232811720
O         4.26225610154509   -0.02870934666962    4.78392714160217
O         1.76025490551838    2.08559871208387    0.87518727066281
O         4.67869985015719    2.45698284979155    2.63893974164669
O         5.18356911349413    3.74524779594352    2.86751529704660

