29
CSD_code = CUMTEJ | q = 0 | S = 0 | Stoichiometry = C10H12O2S4W | MND = 6
W         0.56370307377439    5.12475434594982   10.24238571821016
S        -0.54920326788132    5.08347058283190   12.38596864337818
S         2.50114890212748    4.86088629303093   11.66147938598654
S        -1.33137929798833    3.82958517278063    9.48856738947524
S         1.71853477766903    3.60363576999739    8.76296358488016
C        -0.75972345182408    6.58256188001625    9.96468107918643
C         1.81452046833960    6.39378400309005    9.35927770105672
O        -1.49027773901670    7.44306483686889    9.78471685298981
O         2.50156336196325    7.15233312191433    8.85012095013713
C         3.00350300948240    4.38026146912222   14.31142145159077
H         3.98135409464836    4.33575839469721   13.84038956277328
H         2.80449605440344    3.42914394589656   14.80467076656015
H         3.01332407208885    5.15904168279410   15.07357129805916
C         1.95444706025365    4.67109146699945   13.28330606377951
C         0.63331035309166    4.76651136908745   13.59683259533623
C         0.12568763486365    4.58605167177275   14.99387338144876
H        -0.95485997448568    4.69633969482966   15.01217572411961
H         0.56844894459002    5.32864382979928   15.65708913919729
H         0.38702740996411    3.59806165573628   15.37234114972912
C         1.11729864287416    1.34998758801762    7.32577750866584
H         2.19206148188765    1.46108182280191    7.21359834220206
H         0.65492418625023    1.36882750042595    6.33926168834335
H         0.90684589240541    0.38093291286618    7.77761309605742
C         0.57560350979927    2.45708418858369    8.17603022741783
C        -0.74521731052719    2.55508059764924    8.49008127124655
C        -1.75959594037741    1.56403056105531    8.00953819435730
H        -2.74285028137325    1.82721174063613    8.38901726200611
H        -1.50624458100666    0.55995587770219    8.34895907612419
H        -1.79225108600198    1.55302602304336    6.92039089568082

