29
CSD_code = CUMWUC | q = 0 | S = 0 | Stoichiometry = C6H8B2F4N4NiO4 | MND = 4
Ni        0.00111722968726    0.00122996384913   -0.00090072361894
N        -0.56387068014688   -0.28824043547472   -1.77135428529571
N         0.78692528070339   -1.68938989594028   -0.23747431384385
O        -1.18863723911436    0.64657200714340   -2.50364570068135
O         1.36598842053868   -2.37938637406524    0.73572881602506
C        -0.12536652048448   -1.37062770396033   -2.32823876500576
C         0.60258813123926   -2.21160422918152   -1.39824929661274
C        -0.34458819809621   -1.71678691583490   -3.75551104052808
B        -0.74100950848061    2.00597361675107   -2.06803391452922
F        -1.01470484271527    2.92689176651249   -2.99408954949265
F         0.63645119288807    1.86010660275728   -1.77001029179398
H        -1.24814799252064   -2.31843630448729   -3.85603161175295
H         0.49424466471644   -2.28429879849492   -4.14858662883052
H        -0.48642091050612   -0.80077502457657   -4.32670760266633
H         0.95640427977053   -3.20560661259496   -1.64735882824689
N         0.56368005347584    0.28915324427993    1.77035433646971
N        -0.78720620666417    1.69031643863678    0.23691166072462
B         0.74483085591077   -2.00518263095343    2.06802645855690
O        -1.36415333541961    2.38097492387267   -0.73718575436071
O         1.19090994966789   -0.64432221193367    2.50203314331549
C         0.12329025679714    1.37043136278036    2.32803055560600
C        -0.60478663299090    2.21163690689302    1.39834206267046
F         1.02370586288429   -2.92500115699205    2.99393214356747
F        -0.63294338357460   -1.86294310891373    1.77393033545739
C         0.34133035868835    1.71547509762147    3.75575308180147
H        -0.95923398213428    3.20530836445280    1.64783812978072
H         1.24479819296019    2.31700977979072    3.85764878174464
H        -0.49791847604267    2.28255825570225    4.14854169032021
H         0.48272317896278    0.79896307236036    4.32630711121953

