58
CSD_code = CUMYOY | q = -1 | S = 0 | Stoichiometry = C29H23OS4W(1-) | MND = 5
W         9.58541640400193    8.96281999731017   15.24509404286429
O         9.38899472672769    9.27042678362181   16.89956009118499
S         7.47781826331714    9.71017272767715   14.32836490633860
S         8.80832042226801    6.84155121761963   14.43845176403920
S        10.61735823296181   10.75299066801069   14.09191323913537
S        11.77278049775040    8.01824605937448   15.14719697743907
C         7.68103643961110   10.61005689043481   12.74324693423385
H         8.18024287106646   11.54539939107882   12.97598787725760
H         6.69654341555943   10.78677909737976   12.31822634705869
H         8.29483504606386   10.01712898988549   12.06865202707570
C         6.61642093894244    8.27323390868327   13.65753918922655
C         5.33292498642637    8.55312902293309   13.03904790167035
C         4.48597474987422    9.53213666571652   13.56598938904033
H         4.78913376445069   10.06005142543454   14.45854762165157
C         3.27462669916772    9.81413852776415   12.96751660981432
H         2.62940300946898   10.56961719918660   13.39458291486415
C         2.88219049764593    9.13380523755680   11.82570826111685
H         1.93300006413305    9.35496881483811   11.35843273711875
C         3.72092172789994    8.17218757309694   11.28356187930111
H         3.42784748962356    7.64537682195686   10.38585086671449
C         4.93391118511047    7.88646723566191   11.87581280178003
H         5.58875413111694    7.14684394400305   11.43980812413484
C         7.18249393568299    7.05611129322554   13.82270462861339
C         6.48637027686236    5.80465730411171   13.50857511066901
C         7.13910664580777    4.79107194822918   12.81045070025319
H         8.16107247951386    4.94700003174894   12.49971035148369
C         6.48872940821938    3.60679711054209   12.52283320916538
H         7.00449676050433    2.83080114725115   11.97423886603413
C         5.18204541648697    3.40961955597900   12.93788632072361
H         4.67376442780968    2.48216355493423   12.71311842472478
C         4.53309080550170    4.40362828285743   13.65291867281094
H         3.51844406587933    4.24930358111007   13.99338365954094
C         5.17672386732207    5.59171045690364   13.93794098530314
H         4.67321447041314    6.36063239368677   14.50505668281804
C        12.34767397479009   10.55671195756515   14.36075868961257
C        13.16529047228008   11.68849794286472   13.93105972629718
C        14.35367975231634   11.49199654663240   13.22465577297957
H        14.67405746016400   10.48597143579916   12.99714069955673
C        15.11003711317930   12.57004571586138   12.81063210260944
H        16.02897253282460   12.40114884830364   12.26528259020616
C        14.69511650688698   13.86434298588742   13.08189629061808
H        15.29087726838945   14.70647810461632   12.75670817733978
C        13.50719013074901   14.07076749303867   13.76354976137518
H        13.17208807841970   15.07804345895834   13.97209457666805
C        12.74727525246766   12.99539850402928   14.17995390598027
H        11.81924238629573   13.15290491975089   14.70955343401705
C        12.83092421904722    9.39851579034735   14.86657284567830
C        14.22971415030410    9.19146893411652   15.23922623969807
C        14.93662599449538   10.17350691361222   15.93478103185705
H        14.44128569682112   11.09650290709268   16.19806287132466
C        16.25324058197494    9.96664348111900   16.29581365093141
H        16.78808282951540   10.73709099439363   16.83488919312494
C        16.88832630567700    8.77664745810130   15.97852777817521
H        17.92023591033679    8.61827005549108   16.26145590753825
C        16.18815047185825    7.78702179872495   15.30817792415094
H        16.67393064875257    6.85075286459796   15.06786649493424
C        14.87053230098348    7.98854735663238   14.94658801330420
H        14.31614183823648    7.21779867262757   14.43284220682998

