52
CSD_code = CUNBAQ | q = 0 | S = 0 | Stoichiometry = C19H24BrMnN2O5 | MND = 6
Mn        4.06400912294733    6.46137877118474    2.35254303193179
Br        3.22763862334279    8.54965328402856    1.63783388584657
C         0.76502950857380    4.80205460938641    0.55354539746185
C         1.51755799680016    5.31614191736365    1.64953402743032
C         0.83260723575409    5.68494282762175    2.83062777770819
C        -0.55773086405022    5.51753678882027    2.90623121440603
H        -1.06929632601302    5.79339371028391    3.81648055920804
C        -1.26094085342134    5.03117250092030    1.83414906444390
H        -2.33259526406922    4.91853120271431    1.89028023533227
C        -0.60361972199263    4.67946262554008    0.65382843187613
H        -1.18499862803432    4.30746613710601   -0.17500266793637
O         1.51491231928729    4.47878637339715   -0.54379700874233
C         0.83876273131945    4.13089886855413   -1.72625729579521
H         0.27744077174203    3.19761237112405   -1.60933741269858
H         1.61229970319832    3.99230637949738   -2.48031443708577
H         0.15967001772777    4.92709853511104   -2.04578944437233
O         2.81077971590543    5.39367043719448    1.55334445933591
C         1.55612791396362    6.21286056787304    3.95045331640364
H         0.95476069946279    6.37255524443110    4.85122787405605
N         2.80548749699641    6.51107009870535    3.97823739129086
C         3.31508422919758    7.06814262471862    5.20778972859019
H         2.55947291236384    7.06045718071131    6.00076589681335
H         3.62941059755133    8.09680781009724    5.01639992543251
H         4.19609569596457    6.51482835531999    5.53289207138046
C         7.46614420511855    6.92343532848805    4.52574765731533
C         6.66108671761724    6.79375880017686    3.34757568431989
C         7.30107563640818    6.40500958070188    2.13775990930549
C         8.69649626269637    6.22572177657401    2.11700676965428
H         9.17300746391529    5.95944005290358    1.18439966507108
C         9.43880514352960    6.37935752255193    3.25586337971533
H        10.50827123128832    6.23593866565371    3.23461829976784
C         8.82453525026536    6.71921794121397    4.46704586570113
H         9.43656346339117    6.82118486779312    5.34933029951329
O         6.75896998947631    7.22912484783703    5.65437385244092
C         7.47307220072188    7.53125551493582    6.82590823954589
H         8.01719276213777    6.65811653824912    7.20354244511040
H         6.72558497142158    7.83334221804403    7.55802966006020
H         8.17617200345008    8.35428799928261    6.66560758684380
O         5.40111198935663    7.05901965770254    3.41743656283635
C         6.54107146626471    6.24263183094748    0.94471851952427
H         7.12054814629833    6.06266149954850    0.03561031760946
N         5.25088958498383    6.32645679652653    0.85405417964625
C         4.67968495632817    6.26885438762430   -0.47110619404664
H         5.41416263259638    5.94563811078220   -1.21612798004411
H         4.30754700213644    7.26135820921119   -0.74352335991187
H         3.82527109504982    5.58568940412858   -0.46789566057507
O         4.73379575076380    4.30113784552751    3.01255858400092
H         4.57167760019156    3.71694147440087    2.26049080173197
C         5.74352718675201    3.74709558228477    3.82899657696461
H         6.69668665780909    3.66787123005924    3.29567604137519
H         5.44546452874772    2.75839103085226    4.19298649051455
H         5.87301846679656    4.41493206434315    4.67874978372590

