71
CSD_code = CUNLOO | q = 1 | S = 0 | Stoichiometry = C27H38N5Ni(1+) | MND = 6
Ni        3.72322977400432   10.76705832567536    3.46431966281855
N         2.06048584079313   11.20330396356984    4.37233233396080
N         3.49537298163481    8.98822574939414    5.17668100018427
N         3.45958579479133   13.18010754948522    2.92466829164678
N         2.85235293742965    9.92664301612041    2.00014848772111
N         5.45580625955726   10.50062136349344    2.84728365795100
C         4.48574908670809   11.61553120725296    4.94486037565062
C         5.00150683253575   12.89842232992468    4.77555083703739
C         5.69427961025488   13.49921083687899    5.81917441084972
H         6.10004003505463   14.49202746169019    5.68729277552943
C         5.85680349024709   12.83484590878022    7.02174594715764
H         6.40708721090385   13.30037886448077    7.82473023738271
C         5.27951630344021   11.59302739542822    7.20746241750459
H         5.36000280108349   11.09566912925995    8.16315970031242
C         4.57465164843757   10.97985468051221    6.17658025261708
C         3.82802851909591    9.69251162682557    6.42834927615167
H         4.39736507355687    9.06128220083721    7.11201884904898
H         2.90109232157358    9.96034396386891    6.95224229447070
C         2.04616667645696    8.85150484786342    5.06454002807723
H         1.60385517455341    8.35943342466699    5.94457198931649
H         1.80694696934061    8.24156136056067    4.18919200808492
C         1.36532077239116   10.18792279671299    4.88591610685989
C         0.03235363912504   10.33763897671526    5.24850142137667
H        -0.51003684498523    9.50110096556331    5.66049333040692
C        -0.58178365688965   11.56527917957206    5.07544523200656
H        -1.61895863818318   11.70288503398138    5.33819272621796
C         0.16775660432676   12.61880067208920    4.58110543526343
H        -0.26800656041715   13.59827915872316    4.46458148013827
C         1.49862260223259   12.40614457185104    4.24763660279189
C         2.37742250278549   13.56149589764162    3.83814873562185
H         1.75510673635227   14.36746190836246    3.44158314771263
H         2.81838107170615   13.93001080994025    4.77265078081191
C         4.74514204108172   13.63088619240837    3.48059934239590
H         4.75608637854443   14.71487837407187    3.66205453461289
H         5.54045556048581   13.39559831890878    2.77114348249428
C         4.22845465977528    7.70713823948244    5.01628648355684
C         3.72976311166904    6.60799777797881    5.96489481857151
H         3.69709741189192    6.95513529943972    6.99507416526420
H         4.40681759062226    5.75929613295254    5.91948022189150
H         2.73827712542950    6.25911043236016    5.68615953405680
C         4.08585538961394    7.22356740695214    3.56829265701315
H         3.07075897744822    6.91275801918394    3.33364392749554
H         4.73246944126550    6.36614717575781    3.40276029422825
H         4.38192435728140    8.01995074710686    2.88775781578896
C         5.72186389456798    7.96321951873723    5.26987153558200
H         6.00676981575721    8.92760550390664    4.85847981029502
H         6.31507755402746    7.18807500039166    4.79259202335935
H         5.96688864651806    7.95235746349867    6.32761548682212
C         3.22369036348500   13.61412487956249    1.52611500346783
C         1.81699731651207   13.16727097149647    1.10335200935405
H         1.63613947128321   12.14538919814170    1.42650968212461
H         1.72709260881678   13.20973646335467    0.02120448058546
H         1.04076062722236   13.80361447746846    1.51833497530156
C         4.23454692555586   12.90425374581721    0.61635790362852
H         5.23408448573664   13.31672316855909    0.72175671687717
H         3.94255664905358   13.01884023208328   -0.42395289494742
H         4.26429990218966   11.84304157048871    0.85813745253494
C         3.35364510617348   15.13092509833192    1.32970534473780
H         2.72184173291698   15.68363324785330    2.02121661212715
H         3.04830132183025   15.38959297270698    0.31941591952834
H         4.38055979158698   15.46055036798766    1.46327988153007
C         2.27545407914659    9.42133706427547    1.14754344514517
C         1.56284205740311    8.79892604938751    0.08119687193150
H         1.65120640669711    9.40514932176172   -0.82046620732198
H         0.50964860262659    8.70306202344909    0.34545816360473
H         1.97737805020672    7.80922838819060   -0.11092104677248
C         6.55691232855573   10.42516420724317    2.53163690153540
C         7.92477685420369   10.31970620138152    2.14493721809445
H         8.02961355005582   10.52912443397363    1.08054156947082
H         8.28680419997544    9.31230195694930    2.35001033614961
H         8.51884204288567   11.03489717867541    2.71386369520428

