80
CSD_code = CUNNIK | q = 0 | S = 0 | Stoichiometry = C35H37F5N2Ni | MND = 5
C         2.71976020661290    9.20940227286383    3.34131504564482
H         3.06979609575723    8.31451967083392    2.82773653495587
C         3.56161934686704    9.78358420082007    4.31953820369702
H         4.54816320504700    9.32093760978902    4.38459398777972
C         3.61882027684174   11.26745364363335    4.62412095258519
H         4.45676148421600   11.44783521165622    5.30352824942390
H         2.72819822271740   11.63615055638011    5.12571400792947
C         3.83154727746661   12.11721976858421    3.36088865074048
H         3.76455912270890   13.16764109515969    3.65521645052332
H         4.84280849142055   11.94683491725800    2.98043174180597
C         2.85445700259145   11.85162516937115    2.21525182334039
H         3.05545949483672   10.86526530707448    1.79082830083083
H         3.06519064248533   12.58194263382874    1.42853855501608
C         1.36659091797172   11.95828277503539    2.55411417394464
H         0.81946523560325   11.89730581368965    1.60872601335550
H         1.16371494441988   12.94086934278223    2.98594367887499
C         0.79266650102601   10.88536622043322    3.50729504058169
H         0.95786281679117   11.19282198287466    4.54186169778954
H        -0.29085814140104   10.85555643447680    3.35819659305823
C         1.35982391950838    9.50912598904745    3.25188979433289
H         0.79823703325839    8.93829384959752    2.51508962199999
C         2.80676845003038    8.88556111086859    6.85119319269674
C         3.71247809838001    8.11112411187501    7.57209859391797
C         4.13594768748461    8.41850421067778    8.86062384803309
C         3.66799544167792    9.56392796959800    9.48861790928299
C         2.77389643854288   10.38512407736252    8.81266758138388
C         2.37360277229036   10.01935412001626    7.54157873224540
C         0.39356147765158    7.71896586157992    5.54130482812439
C        -1.16377228072874    6.48283572217755    6.58384773773374
H        -1.82012661127173    6.20503851494219    7.38243712150584
C        -0.96512627178007    5.93636247359601    5.36449824072325
H        -1.40040515294712    5.07678303734969    4.89820757146818
C        -0.25845718506215    8.34337772039251    7.85997497899052
C        -0.90521815420050    9.57748716092508    7.90927207588927
C        -0.86718119491536   10.29233709024714    9.09463225788651
H        -1.35371248698014   11.25515901226629    9.14565455526737
C        -0.21105474123601    9.80257345861274   10.21719480299526
C         0.41797533493808    8.56867465765742   10.13778223297136
H         0.93454429406808    8.17879254149788   11.00290491464829
C         0.40450953109264    7.82132959805513    8.96925572414958
C        -1.61424761856929   10.09854168814217    6.69766158922981
H        -0.93820604934509   10.08658626823776    5.84364189340287
H        -1.95576794633902   11.11602578315504    6.86181915452827
H        -2.47531017487487    9.47280779917918    6.45948397896723
C        -0.16424089251294   10.61018687695953   11.47595651482409
H         0.55326185581256   11.42232484381704   11.36128251607297
H         0.14356841971262    9.99954107711424   12.32081009128966
H        -1.13614003786192   11.05082210049382   11.68911209029497
C         1.07806249766765    6.48430057388553    8.90293757452176
H         1.78838610636279    6.37600376445541    9.71776440132933
H         1.60604565081684    6.36468793177992    7.95906346798938
H         0.34482314253633    5.68120034100761    8.98461805796177
C         0.45707787653794    6.39497308272341    3.43819019214250
C        -0.38944843479198    6.59837848910404    2.34939739500542
C         0.06777623127577    6.25903605815034    1.08381573103114
H        -0.57840974398658    6.41936313308357    0.23261404127884
C         1.33438711398799    5.72860056657775    0.89049322599924
C         2.15738056072402    5.54321843673130    1.99403902356928
H         3.14870062056657    5.13744151972257    1.85155342166707
C         1.74022404425488    5.86921506745295    3.27486547084040
C        -1.75199375123058    7.19620459873302    2.53833331880755
H        -2.12937440573573    7.58512889906127    1.59598636708326
H        -1.71981771646433    8.00626482827737    3.26537890487074
H        -2.45634307761540    6.44723600730491    2.90057453722906
C         1.81469467788240    5.35368325454858   -0.47782167764074
H         2.81096565494009    5.75368057384637   -0.65696358634003
H         1.14220042202707    5.72862516575523   -1.24496348242044
H         1.87104870995151    4.26913665249275   -0.56971769557763
C         2.63770154745372    5.69157238834405    4.45718243249480
H         3.59175047243369    5.26420480081082    4.16386826272658
H         2.17840726952122    5.04389270015657    5.20314597524607
H         2.82513236706193    6.66654591857863    4.93353335905889
F         4.20785706512760    6.98115482325993    7.01600898687921
F         4.99238482646783    7.60881429125488    9.50954563514077
F         4.06475822433593    9.87002045459201   10.73544713729227
F         2.31305695999985   11.50596733752586    9.39770809403838
F         1.47560458710263   10.80643741351441    6.88512076006066
N        -0.32866643245237    7.56304857802822    6.67377520809449
N        -0.01258958804580    6.69837885986294    4.74455202740933
Ni        1.94152942148305    8.88920013739456    5.11101958547467

