35
CSD_code = CUNNAA | q = -1 | S = 0 | Stoichiometry = C10H13FeN2O9(1-) | MND = 7
Fe        4.58098186755141    2.46650429164910    4.86524696110299
N         2.02152559346446    2.19493915052337    6.08669080370357
C         1.05885674981826    1.36400112603304    5.40325586710204
C         1.70129535688422    0.05607479189567    4.92392378041652
N         2.80416410559922    0.32264083163646    4.03495689184656
O         4.10591484511612    3.97893676854154    6.07363807002513
C         2.99924470117567    4.41649061346531    6.50603009718971
O         2.84632943653949    5.39120572592537    7.22262270024791
C         1.73247863792069    3.61121356835776    6.08052180614156
O         4.53660240828194    1.30560332159681    6.24754913598025
C         3.91621405232493    1.17594218655484    7.36238485799684
O         4.36232276531927    0.65320963361611    8.36329213379256
C         2.44688179501671    1.69217408731849    7.36906828249108
O         3.38886896551752    2.89818764517559    3.58723221063073
C         2.84781479790863    2.34476444193108    2.56316011361112
O         2.59529892584842    2.89835184216006    1.51215897311565
C         2.43642244310737    0.85437596790235    2.74818596956819
O         5.40589904105525    1.08688567846647    3.62488215096942
C         5.12416288112759   -0.11967139374543    3.34139428482219
O         5.78849281194398   -0.84190938421510    2.61792728214435
C         3.83048957722046   -0.69094216088516    3.98150746879440
O         6.08482739563722    3.21453607828402    4.65813971297246
H         2.08559755537882   -0.49253959018805    5.78598842600891
H         0.92098253092880   -0.56395648807809    4.44211969921953
H         0.19656113325455    1.11733645952728    6.05113771318070
H         0.68642627034348    1.91826774271042    4.53957080046911
H         3.52294729149772   -1.58501797409286    3.41375375417066
H         4.09529919949845   -0.98832662139131    4.99818670203426
H         1.35784568141623    0.77802322207432    2.56099828869590
H         2.95358638598368    0.31736932252996    1.94599530830202
H         2.43666135832243    2.49172132527115    8.11700464138420
H         1.80474871249300    0.88002249142457    7.73327409493723
H         0.90192372572709    3.87960971242548    6.75354113479700
H         1.48777606707071    3.92547475516721    5.06418539178809
H         6.69265493370611    2.68750083043217    4.11347449034691

