33
CSD_code = CUNQUX | q = 0 | S = 0 | Stoichiometry = C13H14OPtS4 | MND = 6
Pt        9.36420522373444    1.49203639670250    5.51921863842572
S         7.96321475013709    2.26125542924930    3.88992293048523
S         7.67753240531299    0.11933930894556    6.19713341146601
S         3.77605554037608   -0.04696334587467    4.21821847896817
S         3.43372899465665   -2.03935771747003    6.35362850453804
O         1.57493006924139   -1.43868808890128    4.58665404627698
C         6.50772650314271    1.36961213890482    4.11369530511171
C         6.35236982043169    0.45456885516487    5.08744186718885
C         5.14565075546740   -0.30417325860202    5.29646441491320
C         4.95708389852968   -1.22160601969728    6.26224548947811
C         2.68440074787300   -1.22333325880041    4.96965790946706
C        10.35768788994828    1.32545896720547    7.46753811660357
C        10.92791757583987    0.38199207357880    6.62822842633491
C        12.28952926265320    0.53894393283663    5.98765981259013
C        12.22562007657877    1.17651001451004    4.58483074897314
C        11.11841572640361    2.18876763138838    4.41060897350633
C        10.78255698798684    3.17801198163549    5.32211982818261
C        11.54380973418319    3.42886953852673    6.60550620879076
C        10.95503116320405    2.66922258231565    7.81110443763861
H         5.72547356175167    1.60592606798861    3.40835453166730
H         5.69858253324715   -1.48699940853909    6.99270796579002
H         9.60834957432091    0.97938266755101    8.17838978780347
H        10.56345020161520   -0.64076216010914    6.70751372099289
H        12.74643281166511   -0.44732800219877    5.89363804444065
H        12.92626705407683    1.12662254405657    6.64930009447638
H        13.18225332840758    1.65462488872664    4.34931384413653
H        12.07228759086898    0.38630388542379    3.84655145702418
H        10.80984476286992    2.33206041127603    3.37565673274537
H        10.19817058457912    4.01924180709569    4.95313301495612
H        12.58973162372008    3.16052514007453    6.45496687947498
H        11.51403223939631    4.49685015436957    6.82662498359424
H        10.16707195894307    3.27831902954309    8.25966350492252
H        11.72638504883649    2.52836581312254    8.57560788903622

