54
CSD_code = CUNXEQ | q = 0 | S = 0 | Stoichiometry = C26H22AuClF3P | MND = 4
C         7.57335979406198    0.64599500768183   16.37909928387954
C         7.96191292115476    1.95254568242301   18.82957050117222
C         8.88269557370562    1.47438493229681   19.74758870194982
H         9.89367679978869    1.24503138519236   19.44151304818610
C         8.52078945013699    1.28531548111893   21.06924954556322
H         9.25380739797496    0.91583580961437   21.77181384434990
C         7.23207708954600    1.56857728770059   21.50194053001525
C         6.31076715097284    2.02608995868657   20.57180306715541
H         5.29691877099157    2.23941353517726   20.87857789667480
C         6.67000136682698    2.21739187898188   19.24710011430779
H         5.92918784364119    2.56845983903907   18.54401939302931
C         6.84945949633731    1.36197777235299   22.93532592701891
H         6.67471346933758    0.30289260928006   23.12461039955182
H         5.93939933497939    1.90464584669115   23.17794958421004
H         7.64747744956253    1.69222938505978   23.59719072910391
C        11.37746645732290    4.29751837171939   17.01987599971148
C        12.10086525972438    3.12899602055582   17.25199684241947
H        11.62490908301886    2.30001892120864   17.76320499843611
C        13.40505494583677    3.02707336836770   16.80909779247763
H        13.96509497530348    2.12045609681131   16.98445052997604
C        13.98591654796820    4.08434540780060   16.12560703828429
H        15.00257435062443    4.00126693417089   15.77162828793874
C        13.26002319163572    5.23769416448596   15.87914343732922
H        13.70938834234748    6.05172012862784   15.32989316077032
C        11.95310191645440    5.35007117195687   16.32003450300717
H        11.37818110088153    6.23947936023000   16.10648090004246
C         9.74841831112509    4.52920084552538   19.38615328962287
C        10.89147491624496    4.28887968390680   20.13764595751214
H        11.82810538733246    4.06687681121622   19.64510506931916
C        10.82679980331610    4.34413398101148   21.51930644369878
H        11.71667012654723    4.16053902244039   22.10334641594597
C         9.62805906981275    4.62553942766363   22.15161574325948
H         9.58197750817949    4.65696056387474   23.22989755565391
C         8.48620146003082    4.86854146805857   21.40326609632180
H         7.55136860864109    5.08910854636500   21.89597876948102
C         8.54391340188027    4.81836791086063   20.02581836196750
H         7.65887874638893    5.00013622933910   19.42923503720127
C         8.91760433589634    5.86508022755701   17.04929963101146
C         9.38295251177761    7.05831757133322   17.60224185278523
H        10.17887606996988    7.03520218424605   18.33590437756634
C         8.82070618824543    8.25767082066109   17.21014670726310
H         9.18353011372344    9.18403931851475   17.63061528591324
C         7.79225790179541    8.27140782247577   16.27942529352946
H         7.35651901496064    9.21138235076622   15.97511912866082
C         7.32192743421361    7.08495086654485   15.74183347624947
H         6.51887793696029    7.09764747065544   15.02046634649289
C         7.88059101970782    5.87782556576312   16.12510934480279
H         7.53039000684524    4.94899911995270   15.69860363562031
F         6.22697476270911    0.70059808191853   16.57548818956428
F         7.71627890945847    0.32976457832864   15.07392318601366
F         7.97377141587920   -0.46979422602905   17.04839789564338
P         9.66516233765333    4.31243676339249   17.58489108407403
Cl        9.40892911335186    3.17929439710249   14.91745875941704
Au        8.55646350699940    2.38766623966758   16.96554100888918

