138
CSD_code = CUNYAN | q = 0 | S = 0 | Stoichiometry = C73H57FeN2O4P | MND = 5
Fe        1.63253572008219    6.45814691806593    8.41616447179136
P         3.29207311354083    6.26003714006121    6.90761908630879
O         3.31962908635353    5.43883964713882   10.58302872293713
N         5.83127661874377    5.09015414846426    6.95097841919228
N         4.21029545170560    3.63290379942385    6.96344458752387
O         1.64044729567106    9.36127224384336    7.92490384740299
O        -0.27174757235545    4.79478383212710    6.90882360563591
O        -0.45469602999048    6.63087004137445   10.41961257029036
C         6.39103628349052    3.84382945108953    6.81786195375332
H         7.44839232597902    3.70987326116346    6.72601852438326
C         4.48324577913594    4.95806212845647    7.04636020352222
C         2.36632581114960    2.40161237905602    7.98859882192305
C         3.15249579875233    2.30360194750323    9.27701560441422
H         3.68932891949738    3.24933633911264    9.42644208356242
C         7.78295520249690    7.94945272225769    5.66552446112992
H         8.14896456306138    8.31729258080821    4.71930150527529
C         7.03599460148569    6.77804328519042    5.68411484747940
C         2.91279625171237    3.05057233063688    6.88123166072888
C         2.26280623735990    2.11498681425823   10.49066057978146
C         2.24471076081180    3.07158048320520    5.65376795602620
C         8.06656442551385    8.64665822851506    6.82707651773691
C         7.58326160336357    8.15796295985662    8.03517134105940
H         7.79982411855954    8.69385510768065    8.94705836646262
C         5.38634735489101    2.94167271979321    6.82294425315005
H         5.40653827112866    1.87697111971298    6.72665070880404
C         2.51908495353820    1.14528998571260   11.44929447750095
H         3.36033907028165    0.47760510565383   11.33206610282453
C         1.00793753736398    2.45494205763293    5.56020063354746
H         0.48216956953543    2.47056984728385    4.61747186458568
C         6.76008728112648    6.05236066486421    4.38681228748821
H         6.03837064887698    5.24635741065509    4.57343948374966
C         4.18755128915481    1.20894293793803    9.13667375384410
C         8.00236286686517    5.39436127360921    3.82245074632726
C         1.13048854912275    1.78609515822361    7.84972402542964
H         0.69876810360723    1.27838171631483    8.69992292070915
C         1.88188115766991    4.16174152358004    3.43654719219203
C         3.85135826364818   -0.03174635838483    8.60750541560048
H         2.83423727245784   -0.22293871995353    8.29756099127755
C         5.49847541671325    1.43597152959885    9.53478170605592
H         5.77354318493145    2.39449365132815    9.95005453115876
C         6.10192783427585    7.02775298812106    3.43030000053799
C         6.30570091202277    6.46672050231079    9.40864028995874
H         5.29928833497143    6.06838994042902    9.22500935499335
C         6.56186960299544    6.30900758363642    6.90804314166755
C         1.17914517061432    2.96791286298511   10.67439468716772
H         0.96922665836743    3.73037402064526    9.93440497794416
C         0.43453999222864    1.81685623247636    6.65090051749964
C         4.73171397353545    7.23521911424613    3.52265540467243
H         4.15800420501029    6.70374477994899    4.27122174621976
C         2.90708203548949    3.68138301298090    4.43995730820094
H         3.45426521678627    4.57621051332577    4.76575252330893
C         6.82866379202266    6.99929036918242    8.09572450996289
C         6.15086798087176    7.58012691909349   10.42309142876884
C         1.52246521862851    3.40559045305940    2.32935117547415
H         1.99282167990842    2.44744302223932    2.15775676528688
C         0.56622722811540    3.87369683160950    1.44452965903575
H         0.29487350405185    3.27769388535305    0.58508531165922
C         1.26337296394032    5.38752565595352    3.64859077098781
H         1.53107167074964    5.97587358612796    4.51762192069136
C         4.80949980410861   -1.02127040050841    8.47792670221919
H         4.53529650526664   -1.98177116588893    8.06637061461904
C         1.70423427506739    1.02570836831860   12.56310959095486
H         1.91683699127545    0.26413462860234   13.29953290738165
C         7.14618883270095    5.33095838570797    9.95051426299992
C         9.14016300015488    5.19219290734674    4.59168537201910
H         9.17222772254219    5.54406572699991    5.61311856822141
C         3.91519889174814    2.73481774849818    3.82428374802032
C         6.82669040004401    7.75411129529116    2.49415033435418
H         7.89465144943358    7.61059449832293    2.40705554054884
C         4.01768816647193    1.40257735833819    4.20212098411143
H         3.35436359181138    1.00081849506268    4.95482944790797
C         6.45681593271330    0.44630146779852    9.40697294431195
H         7.47060046155064    0.64386739079173    9.72294399058045
C        -0.04298573179690    5.09753438245591    1.65999735108760
H        -0.78950558164532    5.46031538315587    0.96882768680584
C         0.36773753712935    2.85059668013329   11.78651165135521
H        -0.46680355033070    3.52469715410427   11.91186497560387
C         2.67805117140298    5.84131524187375    9.70829693767599
C         4.81878423023794    8.83551070068247    1.74214236581832
H         4.32253909014730    9.53139715844502    1.08219227821181
C         8.87206001316915    9.90737265952685    6.79946676679240
H         9.72384122849594    9.83011955752323    7.47338170719285
H         8.26227788027610   10.74613169049618    7.13265128727425
H         9.23404960374203   10.11790396282777    5.79675057496116
C         5.02454654960262    8.39118025499791   10.36845436923128
H         4.26492561797597    8.20512350815314    9.61895119294385
C         7.99358276309324    4.92921355953104    2.51210188094761
H         7.11539779570899    5.08279817099079    1.90290235965468
C         0.30640742811024    5.85319987381613    2.76684415147366
H        -0.16894786159845    6.80678495212491    2.94415495755091
C         4.76698836242783    3.21905101324958    2.83671903217863
H         4.67968220626751    4.25110516311476    2.52497647353600
C        10.24680348011361    4.55141773120041    4.06060219010864
H        11.12526149749260    4.40711455457609    4.67274571852210
C         1.63134977615849    8.22277108609786    8.09092238796801
C         0.62688663051750    1.87558031592125   12.73571902180596
H        -0.00631094102079    1.78184182423658   13.60560857411860
C         6.11531613523620   -0.78529565696462    8.87560349997865
H         6.86121034250320   -1.55960718920426    8.77359429462496
C        10.23109297853391    4.09985641295276    2.75351333826793
H        11.09568270312396    3.60334970806442    2.33893146487273
C        -0.91813975879219    1.19004139494507    6.53315275753637
H        -1.68065531628212    1.96182793395500    6.63801324721039
H        -1.07649724191442    0.44753668574521    7.31150157521087
H        -1.04743799878904    0.72367901965393    5.55885099136934
C         0.51920667648904    5.43666412105418    7.44712669271502
C         4.09123229621329    8.12712544978445    2.68296043360376
H         3.02363922240184    8.26560799086544    2.76524306537665
C         9.09815614591617    4.29073319142231    1.98055987251510
H         9.07691837596873    3.94228508106643    0.95814320305846
C         4.86021220478460    9.42846613827289   11.26740466051630
H         3.97579391409274   10.04609332170886   11.21595103620628
C         7.11777059511934    7.83275181666540   11.38715405357993
H         8.00185887466055    7.21265637600671   11.43691332381838
C         6.18779668833541    8.65068564034707    1.65526815609331
H         6.76390373374554    9.20605299710000    0.92934042118560
C         4.96134379349440    0.57586239058934    3.61612502760423
H         5.03027731047260   -0.45728135842381    3.92470812383085
C         8.38902078552823    5.00181056910596    9.42801503424066
H         8.79229133872228    5.56574018291624    8.59837547390047
C         5.82498112062763    9.67069198850184   12.23072960684962
H         5.69705847318436   10.47873225685507   12.93580179083159
C         5.69988061500623    2.38995356432297    2.24300893404201
H         6.34765812911071    2.77225165679372    1.46915392292291
C         0.36448879954942    6.58021593498130    9.61209046022987
C         5.80539420711005    1.06637509369810    2.63664605350410
H         6.53791702437578    0.42036542546414    2.17627188732333
C         6.65740256508704    4.60531904981277   11.03218472524304
H         5.69143369831110    4.85740139078225   11.44550072245991
C         6.95368018000815    8.87155827779690   12.28698826158051
H         7.71131584631907    9.05614048756608   13.03486632253321
C         7.39883266252212    3.57563233866184   11.58218790183414
H         7.00816793910005    3.02349655171188   12.42446496492927
C         9.12642794442252    3.96303726715188    9.97167117396151
H        10.09229169632865    3.71749589991685    9.55380420116405
C         8.63580063439536    3.24912024166322   11.05017615298812
H         9.21591678017829    2.44520028673351   11.47892795808084
H         4.26589753269268    7.23927509936970    7.08676198455127

