35
CSD_code = CUNYUF | q = 0 | S = 0 | Stoichiometry = C14H14N4NiOS | MND = 4
Ni        2.94392319136130   16.73048590056600    2.24731749709603
S         2.52141606199650   14.66478663711171    1.69980961718626
N         1.18942790878007   16.86287591286042    2.82562638503189
N         0.36309478048462   15.79443259668530    2.71953252241985
N         0.00979343629522   13.65904724020524    2.10585082032155
N         4.84334471107938   16.56200203695418    1.61344430780106
O         3.34482351596716   18.48390778438641    2.70009600755900
C         1.24178302175275   19.18351939471738    3.57828390998010
C         2.60813182260473   19.40006641825023    3.22973735602648
C         3.15709494357254   20.67789918962901    3.48327519190579
C         2.40374365390513   21.67481623002950    4.04493275310527
C         1.06511540168642   21.45672642792573    4.38483168569958
C         0.49954641431026   20.23083305969563    4.15319767856492
C         0.63370018334709   17.92641984927375    3.34790273207598
C         0.86684231809864   14.70840822491831    2.20954771193910
C         0.13072171921415   12.36006419378253    1.63569209655221
C         1.32410489191016   11.78281723814191    1.20977555419433
C         1.33852369107683   10.47473295639120    0.76128816467119
C         0.17917914519380    9.72014142166862    0.72931542062812
C        -1.01073391203078   10.28742235186589    1.15632585948869
C        -1.03677179476376   11.59142404286007    1.60537621932205
H        -0.91910262920916   13.90479759184002    2.42734858196574
H         4.89089622077482   16.28610982011028    0.63407633805177
H         5.35061153519936   15.87149816266612    2.16470126532850
H         5.28778133206377   17.47217734629293    1.72852062871494
H         4.19130048584007   20.84182425098525    3.21921787308231
H         2.84911491593970   22.64222405802779    4.22790193946656
H         0.48564925656633   22.25286079323880    4.82656012389027
H        -0.53405448361684   20.04859666127874    4.41090329464124
H        -0.41111594892264   17.81498790281716    3.62939590204814
H         2.23779329059268   12.35111337072032    1.22966918270988
H         2.27253163307380   10.04232035854006    0.43444097533613
H         0.20044659716723    8.70014281523571    0.37709094209408
H        -1.92392367003935    9.71098443505485    1.13887690399774
H        -1.96793364127490   12.02963332526648    1.93773655710625

