77
CSD_code = CUPPEI | q = -1 | S = 0 | Stoichiometry = C44H28CoN4(1-) | MND = 4
H        -5.64909602023468    0.79357640238919   21.11910170729538
H        -3.89971300645280    2.66102433935636   21.93558824112606
H        -3.80002612129456    7.84802568096900   21.93345982917574
H        -5.43638906537311    9.77699240799150   21.03163950465694
H        -7.92715872778817    0.24040783187708   17.91974044207299
H        -7.98472386156718   -2.22531556820274   17.95225140100622
H        -8.10326520313730   -3.43017793923703   20.10340767250904
H        -8.16330064535547   -2.15743580817844   22.21774316850315
H        -8.10728849501290    0.30834590828949   22.17614744056587
H        -4.25089840385145    4.44526228128963   23.97967087304460
H        -2.04046092670668    4.38977209019131   25.07366978258671
H        -0.03791145663617    5.15804521080954   23.85164551508059
H        -0.25809721827334    5.98074589950083   21.53472998089297
H        -2.47217966863328    6.03283227483216   20.44820157039129
Co       -7.88877261960951    5.32827165078343   19.96665504856972
N        -6.69941519258395    3.92219506786346   20.63173484863909
C        -6.88251703913043    2.56768043524735   20.56516024991343
C        -5.75261820865648    1.86229051871635   21.09082684543712
C        -4.87205321488958    2.80208944452090   21.50158029344864
C        -5.47359406542593    4.07099540890891   21.22153807830352
C        -4.83395713078990    5.27215395102036   21.48954107481566
C        -5.39688964889837    6.49619943081470   21.16015708651435
C        -4.75345552411929    7.74187041722261   21.45042435928200
C        -5.58246142818416    8.71323863375192   21.00676988621297
C        -6.73164994207859    8.05053748192848   20.46788284826312
N        -6.61149403218974    6.69048674847297   20.56035348053178
C        -7.98110157009432    1.91529316241493   20.02516717011116
C        -8.01529247254586    0.44026818515499   20.04544640969987
C        -7.98303013163557   -0.28913690248879   18.85994333631348
C        -8.01363561804473   -1.67131466246216   18.88103213051208
C        -8.07852342516226   -2.34897416497519   20.08726882452552
C        -8.11092757849744   -1.63335832126469   21.27270599726223
C        -8.07853413464592   -0.25125484796932   21.25220192212140
C        -3.51018090207436    5.24379538973094   22.14127843880237
C        -3.37232079179408    4.77948252579609   23.44658572966083
C        -2.13242732373236    4.75025345891325   24.05776422836905
C        -1.00804463463760    5.18233433119351   23.37400252052456
C        -1.13356750392514    5.64501576658968   22.07451001858950
C        -2.37361335321457    5.67661482880348   21.46364042800588
N        -9.07812880592282    6.73433227490160   19.30154603955049
N        -9.16605692638366    3.96607686591405   19.37299299438479
C        -7.79583682382054    8.74121915847294   19.90691809128610
C        -9.04556904459871    2.60601338939894   19.46478631767144
C        -8.89465408462264    8.08882526467894   19.36740629108318
C       -10.30428463832586    6.58557069571809   18.71242106453732
C       -10.38101451154500    4.16037834763732   18.77391574971266
C        -7.76135096441737   10.21622422743406   19.88573328939603
C       -10.19488026405300    1.94330817539728   18.92616321900566
C       -10.02460412806829    8.79426182530182   18.84190879645391
C       -10.90566415492099    7.85449953550950   18.43213992810102
C       -10.94419767358728    5.38443365867668   18.44499884192464
C       -11.02437614855506    2.91470620665973   18.48349217359236
C        -7.79352113311067   10.94638420589733   21.07075874635000
C        -7.69796864377579   10.90697335856629   18.67853907756961
H       -10.34071210696692    0.87952987855402   18.90085278513669
H       -10.12784429310523    9.86299067473583   18.81314573144126
H       -11.87820417546758    7.99562143370242   17.99860137052730
C       -12.26838283789104    5.41275543444744   17.79410256774315
H       -11.97806496008464    2.80857575532149   18.00096197386890
H        -7.84941220459166   10.41742175906533   22.01138228612940
C        -7.76259814646853   12.32853840924540   21.04879275198263
H        -7.66923895920440   10.34680037034830   17.75501181330255
C        -7.66526272378580   12.28905774012433   18.65715861103454
C       -12.40712635586649    5.87705326920399   16.48888279521564
C       -13.40447668137422    4.97984719612396   18.47247649272106
H        -7.79126366846149   12.88316094329105   21.97733841025748
C        -7.69754073726391   13.00542449040002   19.84212699378016
H        -7.61266031575559   12.81250089508797   17.71188535833513
H       -11.52891204200132    6.21127019608533   15.95519518200927
C       -13.64742490679008    5.90621932239609   15.87852364093876
H       -13.30521346048844    4.62359461495414   19.48783520820351
C       -14.64492561435480    5.01138013014384   17.86242515695507
H        -7.67253667140211   14.08661277238413   19.82533880223760
H       -13.74007402287378    6.26666322710695   14.86266544882892
C       -14.77133360611091    5.47407571746996   16.56302424138947
H       -15.52001808789544    4.67557466064885   18.40277134087540
H       -15.74177916921311    5.49829496843011   16.08601203312816

