63
CSD_code = CUPTUD | q = 0 | S = 0 | Stoichiometry = C24H32Cl2O2PdSe2 | MND = 4
Pd        9.59609440968629    0.00030440097646    7.36314337331042
Se        9.20123480843397    0.89685230527178    9.47403458088744
Cl        9.62183334096190   -2.28804716374145    7.70724064087654
O        11.36584675877278   -0.62262789417837    9.80203830078485
C         7.34062975573164    1.40058950099656    9.65008835745294
C         6.59586097013722   -0.29031095971819    7.90600401903525
H         7.09027607733803    0.14498042312267    7.01638231425952
H         5.66193361543096   -0.73525582938529    7.56880931199717
H         7.22300531124143   -1.09149750183958    8.31719471387333
C         9.19796497799532   -0.65887478858105   10.69262890868839
H         9.12243933742453   -0.32613117190632   11.73077330598071
H         8.38285221562153   -1.35139797653487   10.47769725667990
C         7.05207099238488    2.43794880899103   10.54300342251101
C         6.32643182406966    0.78430095506914    8.91369355051911
C         3.28957327445365    2.67738813783778   10.19338525338389
H         2.58788506888595    1.94085145950650    9.81040677787979
H         3.12902940147692    3.61319907914416    9.65767528408843
H         3.07768063339586    2.85544053350510   11.24575040677429
C         5.73470490830799    2.82805098542360   10.71368766548013
H         5.50521383353217    3.62561031394963   11.40626985041117
C         5.01828066205119    1.21022949554832    9.11449009332043
H         4.22612208587667    0.73891479502333    8.54984058805331
C         4.70401908709307    2.22138060412647   10.00726944042099
C        10.54992903553330   -1.26512553726627   10.42613483653747
C         8.15033633103275    3.12596347947187   11.29563306696479
H         8.85334700683950    3.57738574756027   10.59371514909746
H         8.70595893111795    2.41430073136506   11.90861839738579
H         7.75007620841716    3.90376271480434   11.94052237369812
C        10.79890300911977   -2.64380057986268   10.94808649449923
H        11.86623040315513   -2.83278387229918   11.02573565497274
H        10.37882932321646   -3.33863597720064   10.22066581257520
H        10.30702570274015   -2.80084294564000   11.90409636335316
Se        9.98961774419949   -0.89652547487324    5.25254995869795
Cl        9.57160304226056    2.28914100912554    7.01976247341971
O         7.82588061724124    0.62646779349411    4.92802874013144
C        11.85009597356610   -1.40041429347633    5.07632464364515
C        12.59551930124755    0.29261017818919    6.81826048691407
H        12.10142923223154   -0.14134378215581    7.70883891240532
H        13.52963640347095    0.73799116895834    7.15435172872578
H        11.96833789824188    1.09323317966768    6.40619513099195
C         9.99272111433696    0.65977475819325    4.03458137442807
H        10.06679822290241    0.32718519590546    2.99633656020869
H        10.80844257124811    1.35188492992367    4.24861137518897
C        12.13848659320334   -2.43924570147846    4.18503974680687
C        12.86448518355430   -0.78342074246947    5.81192919518105
C        15.90070598848705   -2.68000362621341    4.53592217931597
H        16.60267536611583   -1.94458046766381    4.92047949059377
H        16.05960307018078   -3.61655596154655    5.07080603565151
H        16.11364490505606   -2.85719161240515    3.48360974405589
C        13.45566034889098   -2.83027083268704    4.01540084386039
H        13.68536771974154   -3.62908540271238    3.32436759362475
C        14.17256648367792   -1.20992256538932    5.61177281861708
H        14.96466669900026   -0.73755694499255    6.17559872519841
C        14.48652601492129   -2.22280235879100    4.72093432529631
C         8.64125020289540    1.26694973344305    4.30126469541715
C        11.04033182668321   -3.12780802006478    3.43261304133858
H        10.33485670108134   -3.57544327576780    4.13447122179798
H        10.48758995669823   -2.41718013299340    2.81584611180790
H        11.44060982605552   -3.90859965312522    2.79134121722547
C         8.39278671233366    2.64511149665381    3.77734663080605
H         7.32548056943807    2.83375241022588    3.69836814621078
H         8.81215970326996    3.34168855846566    4.50348077115678
H         8.88534470628530    2.80003816303965    2.82135051549768

