48
CSD_code = CUPZOD | q = 1 | S = 0 | Stoichiometry = C19H24N3OPd(1+) | MND = 4
Pd        0.64621551872239    1.65992468859536    1.67294660032244
O         0.29044457188178    3.62517516627283    1.17811974875648
N         2.12859593333758    4.66548386364362    1.99047052267910
N        -1.36495989096296    1.05291406348814    1.20980714600314
N         0.84374079534123   -0.30006989767469    1.85720873868587
C         0.77857523377488    5.77722476404596    0.30882301407753
H         0.52462286014602    6.65294993866513    0.90334020089777
H        -0.06210833492683    5.53344722788474   -0.33487611196557
H         1.64341563463484    6.01654253919267   -0.30504959955891
C         1.07030900512711    4.60197303549455    1.20112827791518
C         3.04958796725679    5.78480056820497    2.06246933211968
H         2.51702306913503    6.73597747418644    2.03668020858743
H         3.74193877963598    5.74838182321984    1.21428406572683
C         3.80445997555776    5.59599705868345    3.38868873138604
C         3.03390188827485    6.25554951622206    4.53276232416563
H         3.51180901090357    6.03658355770636    5.48389895416554
H         2.00724650669471    5.90011629603679    4.57400363701319
H         3.01846672519193    7.33525568694374    4.40542179543831
C         5.21888452840477    6.16237580978519    3.32128677442822
H         5.74084679616182    5.97501765278472    4.25559694512229
H         5.19076484415916    7.23640642598065    3.15647226486001
H         5.78646744815647    5.70499209531963    2.51435399343191
C         3.80019232706663    4.06838506302866    3.53422232194129
H         3.92519453102146    3.75230476206042    4.56680678317954
H         4.60961308721286    3.64074882231371    2.94025045374631
C         2.45012159607337    3.61416046032155    2.96320797183837
H         1.67939727586599    3.62673393019520    3.75417866771276
C         2.50767963960740    2.21876384019784    2.34427690175531
H         2.86224382454115    1.54306160814022    3.13728723086663
H         3.23854009361365    2.21601102219921    1.51591453860275
C        -2.41219302962061    1.82970717552921    0.97010001844416
H        -2.19204723529127    2.85715066732744    0.70317078185947
C        -3.71544156096055    1.36025702338158    1.04562714419825
H        -4.54440777856871    2.01612826559604    0.83568068206549
C        -3.92157573880366    0.03663592417117    1.40337379944409
H        -4.92100953154792   -0.36129124616347    1.48602783606639
C        -2.82674535087598   -0.77376659689127    1.65759851233051
H        -2.97496647375439   -1.79844244818258    1.95550227320682
C        -1.54544490614023   -0.23658391713597    1.54392849219029
C        -0.30451722284233   -1.00749134334443    1.74453601258186
C        -0.29725944819517   -2.40084500826943    1.76434426136130
H        -1.21922818821773   -2.94819751361570    1.66071565314170
C         0.89886826734709   -3.08377856659216    1.89283175768864
H         0.91611517889483   -4.16177375349425    1.91090798562899
C         2.07015707884238   -2.34802974185519    1.98071985321652
H         3.02899431262569   -2.83252625464128    2.06413483839684
C         1.99446132982252   -0.96582522013044    1.95796975721220
H         2.89850905551059   -0.37511630955665    2.02194790687338

