72
CSD_code = CUQBOH | q = 0 | S = 0 | Stoichiometry = C34H30BrN2O3PPd | MND = 4
Pd        2.47238576106234    6.88182408822821   -2.29302227768283
Br        0.83903579869994    8.63177664232047   -1.80466518372555
P         1.26916022958214    6.57943414241639   -4.09600881261157
O         3.62639423426544    7.29119968779723   -0.59498636670595
O         1.52247976462027    7.82946653016931   -5.08470845149275
O         1.83206207690862    5.34152624993602   -5.00471232773171
N        -0.39481894242435    6.41235832916771   -4.22134558842092
N         5.22031712189974    6.46238362639671    0.78729625050167
H         5.90752498406256    5.72679781978961    0.88754322038246
C         4.89188776720770    7.25395692196760   -6.44604511882985
C         2.90269294379154    7.94210947823429   -5.27259544332998
C         3.47960985017068    7.20190282456069   -6.27971848505730
C         2.50369673955612    6.38981750724634   -8.48143232953913
C         6.08017811950713    7.16437101798973    2.90480987697684
H         6.78311067639970    6.34360821986531    2.85462212868405
C         3.65382509123552    8.73158273595421   -4.38186492756322
H         3.13812055266772    9.31380512374310   -3.61955488891431
C         5.65368584139866    8.08926062440238   -5.58260214283599
C         5.17859990360782    7.36622762886166    1.86418307034173
C         3.19068993892937    7.37053542905901   -9.22952678346358
H         3.79452052900009    8.09849197361616   -8.70940867023489
C         4.27839613727620    8.42393823496725    1.93832981863998
H         3.57067968961385    8.59835942638400    1.14555165398806
C         2.29097844099333    6.48226949342423  -11.27618107427353
H         2.22810281830616    6.52552389234281  -12.35336384107836
C         7.68126720545039    7.37805633751735   -6.68931965528726
H         8.75419249798257    7.42215319945865   -6.80377010669268
C         5.18402511217004    9.06130032973754    4.08915793897559
C         1.58887766468727    5.54032400445605  -10.57878395772111
H         0.95579839316722    4.83200338044082  -11.09364336763051
C         5.57309381645898    6.45503643330549   -7.38866761196119
H         5.00508477691544    5.78214915231286   -8.01262337306472
C        -1.23381213226260    7.57106123884425   -4.48003474703278
H        -0.76080994649139    8.18749552781698   -5.23962129981667
H        -1.39575004787428    8.17220907787721   -3.58111512297851
H        -2.19474304745131    7.21533573184128   -4.85516914881557
C         2.59328087523657    6.31735699834977   -7.06493301040437
C         0.94691293873381    4.53213481426547   -7.07082596353307
H         0.34878779397668    3.84902665082046   -6.48816942147460
C         5.16541800004883    9.97074512974017    5.27875545271423
H         4.22244374538036    9.86854971126898    5.81499969445849
H         5.25639581864384   11.00940674984733    4.96514905021996
H         5.97860190641863    9.73840442695277    5.96163397396002
C         0.90267186261165    4.54469440335947   -8.43481304467657
H         0.26497028117996    3.85458369725685   -8.96728625485619
C         3.08660418145303    7.41326441052317  -10.59185410691161
H         3.61579955119197    8.17093420105241  -11.15052912895263
C         4.74767481361607    5.30684616551738   -1.28077424180088
H         4.91487546910548    4.35878480655383   -0.76261337231715
C         6.08027551336357    8.00413343103279    4.00158743811799
H         6.78682824420661    7.83094891805834    4.80040544570552
C         5.00868902138130    8.81851670921272   -4.55961633461898
H         5.60559846329854    9.43501071984395   -3.90387062977198
C         7.05415651118913    8.13911498553817   -5.74326623574763
H         7.62308285639111    8.78767575993851   -5.09295688888038
C        -0.90114335684518    5.57706532449343   -3.14182195394924
H        -0.20002701818616    4.75371005960896   -2.97827347766316
H        -1.87035750028144    5.16774021212503   -3.42891769111587
H        -1.01662469754983    6.13964592369791   -2.20624465351624
C         1.79050871476255    5.41975872346075   -6.38544385580522
C         4.28959563122190    9.25400497359355    3.04254770502453
H         3.58334824407310   10.06943616793157    3.09034139067052
C         4.46974904687812    6.43271228895707   -0.33208994139627
C         6.93399556522059    6.51823927045053   -7.50722219988174
H         7.44190575937299    5.90005207970638   -8.23251592275475
C         1.66239986606777    5.47699630500161   -9.17151815287016
C         5.77911450282753    5.65326870753432   -2.33754372729016
H         6.81557732954993    5.92329803968432   -2.24102031655949
C         4.90153996858737    5.56232021095905   -3.34663068129599
H         4.99510334143100    5.64028875134632   -4.41649267645396
C         3.74015945391027    5.26370350126401   -2.48029851112685
H         3.22884693998341    4.30487470873377   -2.64258060928793

