11
CSD_code = CUQCUM | q = 0 | S = 0 | Stoichiometry = C4F6Hg | MND = 2
Hg        0.00000089015644   -0.00000055718821    0.00000008981207
C         1.42709570009342    1.30843656034090   -1.21557365988307
F         2.64661822625666    0.85456131301698   -1.58790025491548
C         1.09960237372371    2.54194791281415   -1.58702880533109
F         1.82347184071431    3.39773124252063   -2.28537804175846
F        -0.07856412543743    3.07850604761236   -1.26870979858876
C        -1.42709405397946   -1.30843581536574    1.21557436642217
F        -2.64661855253057   -0.85456136627666    1.58789885641189
C        -1.09960177975745   -2.54194748198804    1.58703024133716
F        -1.82347344797785   -3.39773057593801    2.28537656915941
F         0.07856292873823   -3.07850727954836    1.26871043733415

