80
CSD_code = CUQMOR | q = 1 | S = 0 | Stoichiometry = C33H32B2N10OPRu(1+) | MND = 6
Ru        4.41085403794247    3.72604770282910   11.54026982600221
P         2.74714190432734    2.84501547832352   12.96094897583213
B         5.77528790830112    6.56765628193609   11.80859640205233
H         6.28037910866812    7.62637822403978   11.91037897692392
B         3.84477705403640    0.63864394137322   10.16334455188900
N         5.85097941424637    4.55478893139605   10.35409893623717
N         6.31997346691905    5.77455628460064   10.61095218813887
N         5.50970182029954    4.45391002075578   13.11913203477368
N         6.00386326702434    5.69296443538604   13.04770573593623
N         3.49868336655376    5.57298655085108   11.48966396806962
N         4.25725385883550    6.66757103891019   11.60846986866257
N         5.46831967941186    1.99681055268364   11.48733215453342
N         5.02691985732455    0.82262390588156   10.97986271016804
N         3.46732537420790    3.09543300563517    9.87201554755064
N         3.22771823240555    1.80109446713904    9.53664443994841
O         3.47780211898621   -0.61263650179021    9.90989859191495
H         2.71898065583062   -0.79682495999200    9.35701947146637
C         6.47917353894798    4.09356502763584    9.27963828825948
H         6.26966306711956    3.11875122519447    8.87564716400073
C         7.38664754111392    5.04916794067450    8.82554963211133
H         8.04186779747001    4.97872143896488    7.98302101948291
C         7.25062758395610    6.10356820861816    9.70482698824418
H         7.75163097404698    7.04891666089503    9.73714060969734
C         5.90606961365018    3.93335574643359   14.27533108548377
H         5.63164296362360    2.94004016638104   14.57566132026794
C         6.67499060794607    4.86062549160092   14.97334363256205
H         7.13249354354465    4.73793903157523   15.93222574926943
C         6.71019619298323    5.96769630940762   14.15234602060632
H         7.18875101903550    6.91580893447593   14.28600762252795
C         2.24537184710670    5.97340514002238   11.29813381167330
H         1.44090057550150    5.27403251571343   11.17320750328738
C         2.19099859163486    7.36549932037012   11.29728533480520
H         1.32715921932385    7.98306838621903   11.16949623230629
C         3.49555896004892    7.76450201035132   11.49821012164636
H         3.91884624073620    8.74518450908847   11.56763634336451
C         6.67498684121834    1.77951878929483   11.97439091722688
H         7.25213993932928    2.56565766846021   12.42477826492228
C         7.03497633662416    0.43107158918374   11.81206190283140
H         7.95088239181433   -0.03251584412121   12.11286506752590
C         5.96760311379010   -0.14810817969465   11.18991635888711
H         5.79283926043675   -1.15188003808927   10.86418125896895
C         2.93732142324442    3.84972230128308    8.92847999507400
H         2.99901299517922    4.92116428427305    8.96207862428893
C         2.31432332717129    3.05388334005627    7.95249050325093
H         1.80091719304323    3.38842539789603    7.07584948114853
C         2.50675505696770    1.76847023316913    8.36763519097373
H         2.21111554728506    0.84603251099369    7.91053621867287
C         0.98340412648238    3.19890561283200   12.61109521545527
C         0.46646919927839    2.85224505303289   11.36217919097261
H         1.10146998419106    2.36261292969496   10.63872972614403
C        -0.85070624151914    3.12089420855090   11.04135764527617
H        -1.23515770901236    2.84386370873376   10.07084965789057
C        -1.67344531382119    3.74820815254027   11.96346634596715
H        -2.70059420483553    3.96378543922393   11.71348571413111
C        -1.17066020335394    4.09531552566407   13.20545497604079
H        -1.80735912667027    4.58149079579700   13.92870567599131
C         0.14777206466881    3.82399819957041   13.53079522008926
H         0.52203749317309    4.10189846838416   14.50416411024248
C         2.86708953877772    3.42534512412978   14.68697875983487
C         3.04279398459882    4.79631646794628   14.87399203532866
H         3.08355186869533    5.44796711140443   14.01037591482952
C         3.15331599285246    5.32193322682000   16.14619822569675
H         3.29015468475369    6.38421753101699   16.28082699411683
C         3.09184413208163    4.48222434255294   17.24778367544677
H         3.18663725170648    4.88899826690180   18.24260388360825
C         2.90155131693964    3.12272964704089   17.06962093638971
H         2.84138810742204    2.46901851841123   17.92647995966652
C         2.78516737719112    2.59148574004297   15.79584332181427
H         2.63002139291472    1.52991370356594   15.67035963187917
C         2.72982930482846    1.02411766150643   13.15056103782127
C         1.66737530668648    0.21034380157010   12.77333267648951
H         0.75668775266442    0.64573929427000   12.38928398352365
C         1.76029326378843   -1.16521617588059   12.90869327863498
H         0.92567587551294   -1.78617535220281   12.61926251755713
C         2.90855571709551   -1.74407480868068   13.41948250518364
H         2.97536390143422   -2.81589923098541   13.52303751642208
C         3.96940113990159   -0.94058493807372   13.80775319611932
H         4.86445135207442   -1.38368012312573   14.21780550153495
C         3.87977857126244    0.43051131270498   13.67215371648977
H         4.70741766901230    1.05704130871876   13.97708060995320

