80
CSD_code = CUQMIL | q = 0 | S = 0 | Stoichiometry = C33H31B2F2N10PRu | MND = 6
Ru        1.69911141002140   11.17965409066252    9.66735206914662
P         1.21463274054360    9.61806590051946    7.99089121974341
F         1.05557893550971    7.57667874287516   10.55243426299088
F         1.48604827762288    7.55729959497566   12.76844449182021
B         2.17226983286333   14.25382200796054    9.16293570997790
H         2.34998593184051   15.40578284063518    8.97109854765470
B         1.44383193720736    8.33684559531789   11.63692749526930
N         2.16659058486357   12.61957191620040   11.02953146237596
N         2.35191553494310   13.87960275374994   10.64011043009318
N         3.11904484176600   12.04922811159914    8.46449663106349
N         3.14469400832158   13.37994996666394    8.36263804515833
N         0.37038481507169   12.54510722264393    8.89527401500159
N         0.75400492784809   13.81881082907271    8.77632551384313
N         3.08974161558793   10.01661707456653   10.63892151091278
N         2.84080104492160    8.95287411377445   11.40539872806408
N         0.30957966700999   10.54741762994392   11.06227649605867
N         0.42310993415234    9.47669005076076   11.85237133424658
C         2.36876026762838   12.56237403594378   12.33845640015977
H         2.27680546477464   11.64272789684415   12.88790930600914
C         2.69630839513956   13.83284355292574   12.81459444140388
H         2.91582117362268   14.11382712406426   13.82375508616258
C         2.67338739144137   14.64028346767741   11.69784151833689
H         2.86239550451848   15.68911825806733   11.59218045874632
C         4.08874357185463   11.57098824777988    7.69608925862958
H         4.27014411842849   10.51678824904149    7.60540910049202
C         4.76116113267399   12.62183262136651    7.07321666636266
H         5.58525081207469   12.55657181439831    6.39362000728562
C         4.12527153614206   13.75611723718546    7.52707791552214
H         4.30775076018564   14.78965356795087    7.31425202435728
C        -0.90351780620949   12.47366982659600    8.52705853550727
H        -1.43947892311440   11.54373261073579    8.53756850842405
C        -1.35705644719797   13.73916012919009    8.15278419081498
H        -2.33462528158235   14.00448295591844    7.80713986081272
C        -0.26781337318883   14.56474935696961    8.32769560973847
H        -0.15748361341437   15.61738065817583    8.16480226820678
C         4.38529620725421   10.28964056406900   10.75078941992305
H         4.83610467494457   11.11539874165588   10.23071157347147
C         4.99524431963715    9.36679249845013   11.59882018418245
H         6.02651072708418    9.32048530491698   11.88176576354803
C         3.97282739421986    8.53327503995620   11.99274524540682
H         3.96773941603008    7.68512562561735   12.64558494782219
C        -0.68677533118188   11.28374404933512   11.54206317823701
H        -0.97869574915792   12.21259761816108   11.08864742409642
C        -1.24332200329569   10.66581923244742   12.66056546363083
H        -2.05990492324880   11.01159578829773   13.25986595604503
C        -0.50510879351942    9.51549420163909   12.82199303097032
H        -0.56931587365100    8.73146424329968   13.54803516933355
C        -0.55411230176352    9.28054160258300    7.65957647172904
C        -1.31445608309993    8.80086124935124    8.72518352384196
H        -0.83062845528681    8.60385163583978    9.66841542705586
C        -2.66624751858151    8.55911765498361    8.57017531222023
H        -3.24444160625014    8.18493700353467    9.40224700459236
C        -3.27860947124928    8.79886327569316    7.34967025887729
H        -4.33621416022498    8.61613762601661    7.22785762931488
C        -2.52867229950319    9.26899573966183    6.28527123027699
H        -3.00008962007094    9.45003902049265    5.32997627218729
C        -1.17292331750509    9.50911183045851    6.43494987035749
H        -0.60014257896001    9.87348294740213    5.59468799697151
C         1.90693990363798    7.92546597827460    7.97022440834505
C         3.22869920305485    7.75513125709330    8.37056452329541
H         3.79955340781823    8.61308306722970    8.69664523772172
C         3.80910232695214    6.50140074736611    8.36768653819926
H         4.83302316257272    6.38123489168316    8.69159427514355
C         3.07394342166611    5.40081059711959    7.95972782157953
H         3.52175651928550    4.41787697040420    7.96585985076684
C         1.76152248466857    5.56398774292455    7.55108986126751
H         1.18471255085968    4.70721395182175    7.23409911198321
C         1.17759627194424    6.81811519040899    7.55398001928914
H         0.15000686138439    6.93219071165499    7.24241541388947
C         1.76426560431849   10.18020143150181    6.32723966713578
C         1.42262293716921   11.47036201604914    5.92548014603552
H         0.81085008020716   12.08147787083806    6.57263004529625
C         1.84822681105594   11.97214928972646    4.71106038600724
H         1.57587833675249   12.97594221249331    4.41833262517161
C         2.62689882757304   11.18997424062685    3.87317387871909
H         2.96731712762477   11.58170339471384    2.92606776877399
C         2.96293017408802    9.90370405112062    4.25617301431758
H         3.56394559190092    9.28560664025040    3.60498489257367
C         2.53607483080147    9.40003377610919    5.47360362907006
H         2.81042018817184    8.39474142397301    5.75788941093370

