89
CSD_code = CUQQEL | q = 0 | S = 0 | Stoichiometry = C37H47AuN3P | MND = 2
Au       -1.73073672173673    0.91144651369155   15.90317248258911
P        -1.78424508294004    2.61850029063432   14.41207113123093
N        -1.94893244333120   -0.64181519481858   18.48993380968630
C        -0.60052881091687    3.95068051200681   14.94212277238317
H         0.29400920011719    3.35701008443410   15.19312005769679
C         0.48564591975374    6.49802111807354   15.87900618718407
H         1.30193463848209    7.07587089903822   16.31595852551274
H        -0.33947421372324    7.18601526078473   15.67898359296763
N        -1.62904601424264   -2.69649282518268   18.08466410474784
C        -0.98356251381001   -2.62240718964944   15.69007707309643
N        -1.93546220405754   -1.87451129308543   19.01244857707558
C        -0.17654640405969    5.02998710621506   13.94707048841396
H         0.17590947049628    4.58465957536662   13.01498699487708
H        -1.01451733964405    5.68507098855797   13.71116423646781
C        -1.09095766012440    4.58847566636315   16.24217148518258
H        -1.94681184368131    5.23499000433708   16.03788628061463
H        -1.41512832697984    3.80624763680007   16.93668154182561
C        -1.63187804991627   -0.64480053436612   17.17024574415658
C        -1.52701975603956   -3.85157302168565   15.22186837973763
C        -0.00673897597329   -1.99368561974928   14.94818200448312
H         0.43421090868796   -1.08046347129217   15.32427283433994
C         0.02313246180871    5.42648979114169   16.86290849563224
H        -0.33302351209790    5.89419395687605   17.78296321712657
H         0.86498139330720    4.77968615725724   17.12051262556774
C        -1.42022148518882   -2.00714450986884   16.93504770838901
C        -1.56096799940438    0.48348536692278   10.84421200164644
H        -2.21057283803661   -0.31626116577539   10.48396860778300
H        -1.59558872343293    1.29833788744735   10.11575906990826
C        -3.53120402489584    1.17397327145405   18.96450215675222
C        -4.29290895982484    3.39619406680740   15.36095133501289
H        -3.90080410555207    4.16181779622730   16.03185703518934
H        -4.23665211140124    2.43797980642029   15.88646968811391
C         0.25115447687094    1.59294864073600   12.85472114518465
H         0.91517985259110    2.38077149651536   13.21674024771036
H         0.26556630441980    0.77662897957296   13.58328113643835
C        -1.18473807461331    2.10805532362263   12.73037402062741
H        -1.22021462454517    2.96602001305195   12.04610589244134
C        -2.07484115463285    0.98570854047144   12.19060364456610
H        -3.10312556690544    1.33131250826135   12.06552493420071
H        -2.08043136131829    0.15987694416367   12.90978121707399
C        -3.64278903697078    2.55589029136643   19.03820070327955
H        -2.78179582186325    3.14741927076624   19.31837117778278
C        -2.23625165536113    0.49027061832987   19.32184421545326
H        -1.40749913918291    1.20600252647426   19.26756765837951
H        -2.29848052183372    0.10599040165136   20.34659968255879
C         0.94412179774773    5.86469522477686   14.56808266188288
H         1.25093642810546    6.64375638052023   13.86722440947585
H         1.81071339923079    5.22665660601546   14.75791184962206
C        -5.74501488819579    3.72215406078621   15.02328232218691
H        -6.16558202881200    2.91656075824618   14.41684599438990
H        -6.32680960947111    3.78503955964914   15.94341298463826
C        -2.50654947561330   -4.56679408344909   15.94043246710010
H        -2.83039588757630   -4.17816537601563   16.89314937549864
C        -4.64271456789993    0.42443181958468   18.60037762856876
H        -4.56154457532937   -0.65093227585225   18.54136411006516
C        -3.53489777249920    4.66470892630247   13.33247078774416
H        -3.14904033617202    5.46267511661943   13.96912193506113
H        -2.93571234988827    4.62867659058116   12.41976520052497
C         0.76863971742699    1.08059959672761   11.51318449220595
H         1.78783366462861    0.70876744375043   11.63545527026831
H         0.79897124097784    1.90634894352869   10.79678162064444
C        -4.85052775091451    3.17755983774315   18.77452955425415
H        -4.92938703222485    4.25276345765553   18.84850533996061
C        -3.46747137701130    3.33261106845554   14.07505268753337
H        -3.93573422319261    2.56397622495696   13.44281915095186
C        -5.83613962413903    5.03812702774725   14.25549602341252
H        -5.48048575683869    5.85288494718925   14.89092296506012
H        -6.87595619226662    5.24689218162714   13.99755615138805
C        -5.95656490296616    2.42312627584013   18.42299667241128
H        -6.90438406346211    2.90519164347923   18.23224489570983
C        -0.13142866891103   -0.02574670779020   10.97530321417865
H        -0.11792850254285   -0.87492717872281   11.66075500637708
H         0.23553125662176   -0.36681041132209   10.00552653268986
C        -4.98928289334371    4.98027362606058   12.98716878302508
H        -5.04269020176268    5.93461456672863   12.45894139979646
H        -5.38243281384829    4.20790289585264   12.32184781303823
C        -1.07422253685565   -4.37739216307855   13.98210554457066
C         0.45230748733366   -2.52961002700863   13.74097358883424
H         1.24389164866910   -2.02295808863806   13.20466146631574
C        -5.84702791443841    1.04617014812911   18.32601744298853
H        -6.70614561825121    0.45366780577055   18.04809878544144
C        -0.07820390304114   -3.69245869979565   13.25621240167238
H         0.26850644779150   -4.11160876421378   12.32146120869424
C        -2.56896547834729   -6.25893458145462   14.23315898922284
H        -2.97965214061665   -7.18911455324618   13.86596660720409
C        -1.62198215002956   -5.58933487047375   13.51139451663190
H        -1.27090487199393   -5.98138912884176   12.56623617187744
C        -3.01187989424126   -5.74287660756623   15.45980409268348
H        -3.75702063414794   -6.28475370318649   16.02452396309792

