97
CSD_code = CUQTAK | q = 0 | S = 0 | Stoichiometry = C50H40Cl2P2RuS2 | MND = 6
Ru        5.02563871906893   13.97493425854817   10.33094589459178
P         3.05808550510675   15.16625728736268   10.68938664015059
P         6.57028318186290   12.36347643037643    9.67362015652028
S         5.70513601008080   14.57527074514439   12.42266540491246
S         6.48666893597545   15.56957423232615    9.57736277005060
Cl        3.88131385392092   12.04991335275165   11.19181959083122
Cl        4.04887321836525   13.71636006216944    8.15503070304420
C         7.23139653875321   16.23228263132775   10.96188017597087
C         6.83724330838848   15.83668289958898   12.22626885108607
C         8.31497107314140   17.18279595386155   10.70838905525804
C         8.18580408170252   18.13253992941252    9.69747777326522
H         7.26937099635465   18.16937621868933    9.12666549924764
C         9.21017408486961   19.02395771531210    9.44260850164327
H         9.09623219837141   19.76238226195949    8.66280273058886
C        10.37972888962122   18.97027117430873   10.18255404159457
H        11.17981384204412   19.66744806814221    9.98304282385986
C        10.52377741469870   18.01393524103722   11.17515049078063
H        11.43991774788563   17.95968572129192   11.74466401624531
C         9.50109357586090   17.12413253129541   11.43958175495912
H         9.61841081128167   16.37014959487165   12.20363835527362
C         7.30084767544501   16.47166948686442   13.46089243200520
C         7.40256282575350   17.85926985929191   13.55588134603203
H         7.14126896923689   18.47137340466248   12.70550410501742
C         7.81915073018454   18.44528123807738   14.73514343595023
H         7.89216643913788   19.52091573251685   14.80077110059508
C         8.13875817658693   17.66033505599253   15.83163837803233
H         8.46886582455663   18.12271163472458   16.74993690174275
C         8.02611756139822   16.28242673595472   15.74829761131642
H         8.26702588586750   15.66671877865466   16.60227415402371
C         7.60335220922055   15.69026152299517   14.57377850246343
H         7.51493489638561   14.61614480891464   14.49976987727859
C         7.78057799813262   12.41877727195420   11.02861141139786
C         8.92758474630633   13.19877671802970   10.92324747601619
H         9.16622378562690   13.68417935668442    9.98528538854294
C         9.75532928747857   13.35764122402331   12.02120322548993
H        10.64837549052484   13.95979235479248   11.93394557402155
C         9.43652587410730   12.75492004085944   13.22631522036164
H        10.08195507628770   12.88768768152059   14.08246514268971
C         8.28066465583975   11.99578285024568   13.33995324886322
H         8.02345428876240   11.53919765512306   14.28473370880966
C         7.44743670295621   11.83363750883020   12.24987003802923
H         6.52178713824583   11.27864008984705   12.33866915152094
C         6.07875621243804   10.62638731670639    9.49262482271907
C         6.80006385657632    9.57827383775038   10.05231395638822
H         7.66267835646367    9.77505530041589   10.67429491406684
C         6.40091542294799    8.27384989333621    9.82066636366716
H         6.95755945892422    7.45943805882657   10.26190341310350
C         5.29264648174169    8.01151039310670    9.03335139878640
H         4.98270610638102    6.99062168012647    8.86391462465979
C         4.58064054305270    9.05658317726825    8.46660542279775
H         3.71556325176656    8.85320957686770    7.85316320648642
C         4.97229813806035   10.36254790992278    8.68944169125528
H         4.41604777670869   11.18664871106079    8.26135700851376
C         7.59168809351339   12.54443343084725    8.17695843312882
C         8.69234874452149   11.70121837874353    8.03502119039442
H         8.92733322232660   10.98878310500436    8.81444447380460
C         9.48172155610716   11.78166739527673    6.90514228066274
H        10.33675294553115   11.12970002503164    6.79929146278510
C         9.17548876437394   12.69519999121323    5.90744035544787
H         9.79409392920858   12.75394461030486    5.02380455798527
C         8.07608932109965   13.52450753769479    6.04177485725356
H         7.83173144286162   14.23133794943482    5.26290190433059
C         7.28032875943835   13.45055318066245    7.17270614640738
H         6.41074449927786   14.08474495573022    7.26937423070475
C         1.57927152442970   14.86136117310015    9.68355142741848
C         1.16183882181164   13.54019024818371    9.54751481875332
H         1.75699143534595   12.74589885252065    9.97933992700429
C         0.00780497150678   13.25330735124458    8.84406083472480
H        -0.30896510092786   12.22741441172340    8.72906768935780
C        -0.73745786769980   14.27842681070187    8.28393636163554
H        -1.63673666988585   14.05341078331360    7.72927705392331
C        -0.32932702988667   15.59329862397407    8.43164712407855
H        -0.91066511434214   16.39352799227717    7.99638114989308
C         0.82602670138975   15.89131870404207    9.13197325683613
H         1.14194868713334   16.92027619457101    9.23667627603324
C         3.57938591015359   16.87163458259440   10.34141604928584
C         3.72492587495143   17.27573201229852    9.01494601196727
H         3.43197017575483   16.60312415979046    8.21886368021932
C         4.27135034739079   18.51236690860429    8.72929947732563
H         4.38125619450391   18.82597445237587    7.70137708314741
C         4.69149485693122   19.34285097368905    9.75798009151343
H         5.12525901209292   20.30620576109803    9.53203880524724
C         4.57178820355407   18.93180509103891   11.07504502447080
H         4.91094613645826   19.57240215652384   11.87657548429216
C         4.02455354004407   17.69570038207030   11.37079788418724
H         3.94636222186122   17.36508998931251   12.39912006251250
C         2.28057198393911   15.27760413719516   12.33255615460067
C         2.54185514466443   14.34769056760308   13.32964078118329
H         3.23564662054906   13.53992730496419   13.14387842859552
C         1.89958541511061   14.45082393823519   14.55203370400287
H         2.10671500965176   13.72756838568978   15.32660075376792
C         0.99447648803570   15.47248181798667   14.77956839125881
H         0.49480413569151   15.55136806289599   15.73405377160688
C         0.72203338544834   16.39400878702907   13.77956838099556
H         0.01076780569397   17.18844701177277   13.95380168517606
C         1.35751531707549   16.29697770680161   12.55752360262832
H         1.14640875285172   17.01360092910737   11.77524939695114

