72
CSD_code = CUQVOA | q = 0 | S = 0 | Stoichiometry = C27H28ClNO14Pd | MND = 4
Pd        0.14024186406036    3.76864113713205    2.25288972444093
Cl       -1.24390997543799    2.62790472013300    0.82002075364281
N         0.67256325665060    4.99458406808868    0.75074523471239
H         1.66083191897670    4.80140597807820    0.53138587491360
H         0.08479255533220    4.76778310165417   -0.05828508278100
C         1.66184425646353    4.58462074879689    3.44258243785205
C         1.97031895973728    6.03684899666331    3.28465729916349
C         2.81923004377583    6.63062166867980    4.22139473579362
H         3.27033179344297    6.00716302327266    4.97631082206843
C         3.11630342090779    7.97706383214088    4.19544395730178
H         3.76838802072910    8.39663723405718    4.94619077121407
C         2.57848136633517    8.77636691642317    3.20258351605325
H         2.79086088972887    9.83369254598738    3.16989446734789
C         1.77669020810915    8.20104976180344    2.23826652127391
H         1.36428775539751    8.82045236100893    1.45584958531088
C         1.46564342078481    6.84314420879141    2.25445690347792
C         0.51800749750015    6.38662635674161    1.15710616590810
H         0.68311600069923    7.05290095393220    0.29333609696373
C        -0.93413916153434    6.66697468546794    1.61460773608551
O        -1.28747244950511    7.71139690482806    2.09862884193027
O        -1.71193517930694    5.64166386549485    1.33553608233558
C        -3.09082796028316    5.71228238732380    1.69093946216569
H        -3.58836774261250    4.96303029704281    1.07970991730626
H        -3.47864410309790    6.71391522150908    1.49585296255396
H        -3.19539107709270    5.46620228248145    2.74772678713208
C         2.44866033602211    3.65752694268767    2.65233275013369
O         3.04762361997936    3.92013931572658    1.60956429815510
O         2.48269408024113    2.38890490545603    3.18974180782333
C         2.73751243300950    1.35428927870761    2.24410601514166
H         2.93070332480689    0.45390543764417    2.82245615079615
H         3.60036734818231    1.61194727362096    1.62615418349844
H         1.85191216793488    1.22453810523041    1.60449750437240
C         1.37173036023315    4.11796121999207    4.87853477611708
C         0.53909389625293    2.83317295598180    4.81458255490218
O        -0.19600046715237    2.55296630645075    3.88624169745010
O         0.63812369557581    2.09301326190146    5.88921860773143
C        -0.12810701693417    0.88878940848532    5.90559295504647
H         0.14356642295975    0.38011463340129    6.82624296466618
H         0.11854649432948    0.27622283473258    5.03696605803990
H        -1.19457630996014    1.12025348704092    5.88921719141960
C         2.54626999022820    3.89643092564257    5.78949904125658
C         2.34545203351837    4.55817043659959    6.95928026209958
C         1.10314659436000    5.30049452130239    6.88718114632065
C         0.53452403079344    5.09134435073593    5.67530110530715
C         3.69681254239359    3.02075655387757    5.42403733740475
O         3.82535578741071    1.88123822684133    5.77906516814871
O         4.54188423842598    3.70302020781451    4.65659065023222
C         5.66711164970125    3.01363529604737    4.12458790159353
H         5.65892156819310    3.16442394151794    3.04508924429957
H         5.60238889706716    1.95153017147065    4.36696749761994
H         6.57228398951684    3.44287497533916    4.55504950462761
C         3.22749206522345    4.56626840070972    8.14377114104274
O         2.89958796481114    4.96007739761926    9.23404764601837
O         4.43555365071188    4.07564944895411    7.85301921950639
C         5.35279162897790    3.98694465731077    8.93528037431960
H         6.19146500120664    3.39777389700976    8.57399000059103
H         4.88100539169277    3.50186443447803    9.79165952197264
H         5.68371353398192    4.98474261998226    9.23132828193321
C         0.57269384375237    6.12876639747346    8.01019634503661
O        -0.40865996721523    5.84700336999602    8.64093282128029
O         1.33021823003163    7.20275915383382    8.19449228472817
C         0.98398157042514    8.03288414831101    9.29680176666117
H         1.49234146124970    8.98064678802652    9.13900404528618
H         1.32323830558453    7.56521638678977   10.22283118842500
H        -0.09760446170628    8.17280100625389    9.33937344136143
C        -0.66162960839360    5.69827258327195    5.09459047000647
O        -1.19751074971159    5.28565885535691    4.08225877448019
O        -1.07572885177860    6.76366311264297    5.76529542756470
C        -2.21187624507301    7.44474963609659    5.23725847547147
H        -2.37058980950422    8.30231090873207    5.88492005205521
H        -3.08442799895700    6.78891524920001    5.25457411426301
H        -2.01520224215827    7.76599331617170    4.21194465963821

