40
CSD_code = CURFAY | q = 0 | S = 0 | Stoichiometry = C13H22Cl3NTi | MND = 9
Ti       -0.04983301128295    2.22989341779204    0.04808677757665
Cl        1.30241229881133    3.95694171112068    0.06922211755215
Cl       -1.68063434672831    3.63600196878669   -0.52815026351124
Cl       -0.35451310337194    1.26845130245798   -1.89523633110542
N         2.27359878091971    1.04483741269891   -0.48951162440367
C         2.01005439514974    0.26347132592737    1.84213120299769
H         1.96904852065525   -0.80716542068259    1.63517471755139
H         2.43985706217761    0.38604215804807    2.84035586948982
C         2.91600862149688    0.97479952068701    0.82554340028543
H         3.08771955180333    2.00158323582511    1.16400102115045
H         3.88911824488446    0.45757720085216    0.76092387744786
C         0.63547833002195    0.86362293167272    1.79543098872716
C         0.29265797615397    2.12049422914982    2.36857824417222
C        -1.08843906174654    2.34637498304611    2.13916329952676
C        -1.60266815775258    1.23410438787037    1.41256195746006
C        -0.53959318273030    0.30907073059774    1.20598772556127
C         1.15663509286661    2.99270238039787    3.23134836319509
H         1.36519616491814    3.94642898489895    2.74406328902598
H         2.10520271364821    2.50951842439987    3.45443463858598
H         0.64360772254548    3.19885563165579    4.17193754272527
C        -1.85661093575055    3.50940997357066    2.68569978810257
H        -1.29126864258803    4.43292198856416    2.55890102968942
H        -2.04178294492830    3.36310077089587    3.75260467443288
H        -2.81352362321070    3.61939881268995    2.18157696988922
C        -3.02943245482702    0.99693642841343    1.01889556868981
H        -3.56036673432487    1.94033239874036    0.90616923582494
H        -3.53903257403863    0.40349752734511    1.78214492427025
H        -3.07913831178848    0.46056319843466    0.07080818133718
C        -0.75231547002002   -1.08209538091435    0.67658284605848
H         0.05702797919758   -1.74562739405880    0.97715059761883
H        -0.83261457406469   -1.09022413171836   -0.41241473935793
H        -1.68023474579109   -1.48454914928425    1.08488980892429
C         3.07453009775135    1.87160220811151   -1.39356606163395
H         3.26829894660906    2.84701070226318   -0.95221896536887
H         2.52500157853213    2.01074949217727   -2.32644499182020
H         4.03871107223320    1.39194658934459   -1.61698895833187
C         2.21263261190731   -0.29057480949937   -1.08466480070292
H         1.78996506184449   -0.22108951641157   -2.08456473079237
H         1.58224783748208   -0.94865932209395   -0.49713669648649
H         3.21909121333516   -0.72965690377258   -1.15687049435421

