72
CSD_code = CURFUS | q = 0 | S = 0 | Stoichiometry = C29H38NNiO2P | MND = 4
C         6.51418663219358    6.50675290689444    3.48078584734394
C         7.40308245610558    5.45934231312189    3.87546403027663
H         7.03493261756451    4.76214345772638    4.61423504778712
C         8.64476290583804    5.34573479572209    3.35040248305002
H         9.30040981933807    4.54480095419877    3.66294658224768
C         9.12284418746158    6.27019433403426    2.38658789083578
C        10.42160934569909    6.14285622219988    1.86713843221418
H        11.03745470697242    5.32561329224880    2.21599749461462
C        10.90355587432285    7.03082263688951    0.94272746848165
H        11.90309875598924    6.92893288234466    0.54707645839783
C        10.08601000044909    8.07862889980187    0.51632912071754
H        10.46072732264122    8.78665528553945   -0.20886725044793
C         8.81319909672174    8.22105251566454    1.00901734169544
H         8.22723960141695    9.05261127800204    0.65005923976306
C         8.28021068989278    7.32629372532141    1.95550971019670
C         6.95143215863915    7.43813224750700    2.49995087279300
C         6.06922577426936    8.45601612071470    2.06165823374677
H         6.42976249894459    9.11815742698606    1.28197818905776
C         4.02963015761986    9.67168300912246    2.02267049012169
C         4.30234799530891   10.59039896271885    1.01173593523089
H         5.24526158803778   10.58562739369874    0.48482653730626
C         3.34809259741119   11.52706982913903    0.66937653189710
H         3.55695787640157   12.23946688983967   -0.11469553160902
C         2.12172208172004   11.55865631038764    1.32481908410820
H         1.38672611421400   12.29884080797911    1.04272193075658
C         1.83027825516250   10.65892333673939    2.32619131593367
H         0.88034696731873   10.67404749287896    2.83839840366840
C         2.78057352308371    9.69634613192712    2.69139495070602
C         3.86439016595403    6.46136346653995    7.01249999543387
H         3.31586898798664    5.80719538342755    7.69508291893392
H         4.82091053903608    5.98892832965017    6.77687323314519
C         4.10893298452748    7.83092991114896    7.64279561520212
H         3.15673647199355    8.34812706776310    7.78280927319108
H         4.56089536849348    7.69704516818838    8.63044622865601
C         5.02936488046475    8.69934415745884    6.78772202515159
H         4.59929173110907    8.79639655359899    5.77143902988567
H         6.00002534906095    8.20786223810216    6.68974546290965
C         5.21518681609044   10.08899871481206    7.38141478725727
H         4.26142721145161   10.60792679675016    7.44545409118457
H         5.88483234881790   10.68156056784775    6.76342378062484
H         5.63889846428129   10.02431105942284    8.38224034843608
C         2.74863388992306    4.80581864954255    4.97220549400205
H         3.75255143161301    4.37474122907751    4.97579589691450
H         2.13938521481295    4.28511843082910    5.71276788196731
C         2.15438592084964    4.70148903947075    3.56869178667132
H         1.10867070878211    5.01718395427623    3.58477947978298
H         2.70172053351839    5.40249424818671    2.92144979123500
C         2.24819308371697    3.29623962987506    2.97715596628391
H         1.91573611678753    3.33200798595797    1.93738007150333
H         3.29149532964944    2.97322456174723    2.97906331014323
C         1.39897408899232    2.27952287286834    3.73249520243992
H         1.76219106326025    2.14357914684281    4.74815972654258
H         1.43032680961581    1.31479418318132    3.23156917970057
H         0.36235911634011    2.60735201369923    3.77644200263211
C         1.24838705315755    7.14161750217137    5.88745882688627
H         1.32564266866618    8.21383690697727    6.08298939635387
H         0.64354057692071    7.04063611081150    4.98265353347101
C         0.58157085017255    6.43010353903713    7.05919071437914
H         0.54337156371192    5.35415927001382    6.87706965820379
H         1.15386917145728    6.59564758748496    7.97371562826006
C        -0.84248042889865    6.94309047542247    7.27266796418937
H        -1.42906663590537    6.76920329043311    6.36809120007446
H        -0.81484987400089    8.02092319217638    7.44591985508276
C        -1.51734153495907    6.25685989429489    8.45431258529015
H        -1.57178754926099    5.18226788098388    8.29303526396950
H        -2.52798487540633    6.63411068722814    8.58911834361979
H        -0.95961343774498    6.43704075008689    9.37088402977944
N         4.86071040348985    8.65670231559470    2.50807018065421
O         5.36082858244149    6.52110705268726    4.05507803128055
O         2.55874837187422    8.81194840457900    3.63295794198085
P         2.93969423956364    6.58004509995994    5.41979788048884
Ni        3.97809462682891    7.68524322044821    3.85884954524082

