53
CSD_code = CURGIG | q = 0 | S = 0 | Stoichiometry = C19H27CoN2O4 | MND = 7
Co        7.67069226143596    1.49496434871678    1.02724670189512
O         5.98615732393481   -0.22254373442051   -0.08017646920099
O         7.93738053537482    2.27401174129401    3.52748507280459
O         7.95574852161873   -1.38142718223091    3.36254457935679
O         3.43935073788867    4.12009230398248    3.53094372127334
N         6.56900639889775    0.18191256291676    0.95015537493881
N         7.45172752102284    1.44948388214423    2.72459001615599
C         9.24348833486928    2.89095524529006    0.75970180136338
C         7.99207086424740    3.52588523854177    0.54217736620009
C         7.34245588214464    2.86012672620680   -0.55367384551895
C         8.20087104880565    1.81806139948274   -0.99836065855422
C         9.36165031700331    1.82693997300013   -0.17692099600317
C        10.29122048650023    3.34873711675558    1.72058020832617
C         7.54545379672887    4.76170619793997    1.25496829856329
C         6.08061983517722    3.26913749201440   -1.24384300177387
C         7.98097475796888    0.96552283611008   -2.20600672452449
C         6.12391414069028   -0.46193399366237    2.19396585220934
C         6.52212351289225    0.46247393553655    3.34123779565044
C         6.93423853640850   -1.75044770375633    2.47141944264215
C         7.39193432409967   -0.44006484563381    4.24280530305506
C         5.38535887657506    1.23318457086231    4.03901068577742
C         4.66348606205793    2.13305979684125    3.02297734729061
C         3.54932892288773    2.92954180587883    3.66566992798625
C         2.58049328743196    2.09190814264563    4.46536349531995
C         3.32919031703019    1.20586154580917    5.46057667687640
C         4.36833367127341    0.34251970679564    4.75108191361933
H        10.25018789757936    1.23661793773575   -0.34396246633436
H        11.17731575694479    2.72293827540719    1.64682073677834
H        10.56705283750719    4.38208747689055    1.50985019850843
H         9.91436583074306    3.30280840655407    2.74270437919299
H         7.68227342869903    4.64524794298327    2.33003019538623
H         6.50025587694059    4.98581833334851    1.05605396688982
H         8.14812558170894    5.61214089885020    0.93228713077750
H         5.46083567003207    3.89467209659738   -0.60582039908997
H         6.32191501589973    3.83272360259105   -2.14713619444686
H         5.50861745181189    2.39074098316010   -1.53757874379090
H         7.10618517451988    0.32923128530122   -2.07097977935844
H         8.84574580864148    0.33108725995014   -2.38535180245111
H         7.81295351688231    1.59218167313096   -3.08166740088665
H         5.05682150269369   -0.68314994992824    2.10940653746932
H         7.39293987136150   -2.16197995883531    1.57206021929003
H         6.27695258834478   -2.50441905025179    2.92867421714610
H         6.78294490658734   -0.94334207149075    5.00565685346485
H         8.19811142878963    0.11612346263853    4.72217995301972
H         5.87306423628603    1.87849309869206    4.77998045077272
H         5.36558679542717    2.82903472683538    2.55822624263808
H         4.21789771205952    1.52141613219150    2.23407642449030
H         1.87545317000352    2.74593092967776    4.97984685013769
H         2.02165820592048    1.46466947897637    3.76610908984529
H         3.82590238085174    1.83609772479263    6.20091795605052
H         2.61644615764384    0.56917271743147    5.98769981590064
H         3.86875996047847   -0.30888307664955    4.03087718549497
H         4.86346096067714   -0.28832944564102    5.48981849737597

