69
CSD_code = CURPUA | q = 0 | S = 0 | Stoichiometry = C32H24FeN4O2P2S4 | MND = 6
Fe        4.46524306653783    8.31374830637207    4.99773258778717
P         5.86308438812626    9.45788913635439    2.80412913353349
P         2.96391475551482    9.01957494048020    7.30477045259851
S         3.60795762672121    8.38377439291098    0.77926018552891
S         5.33901305449939    7.96684724704118    9.19939512063173
S         1.80871194189772    4.67431981333532    5.39034525531892
S         7.50144035731409    5.06246582368214    4.18099261402325
N         3.55155468055363    8.29919041292154    3.33536910822088
N         5.38594974909698    8.19788379151209    6.65213800072136
N         3.38736349193806    6.91102411381703    5.68295268793747
N         5.68774247362497    7.13405115316685    4.15274780419751
O         5.71543089746229    9.88726083200913    4.21951695503958
O         3.05464830003160    9.63313376207553    5.95395038042462
C         2.74987240818953    5.93234431243399    5.51006219617693
C         6.42917333045210    6.21677993792108    4.20878855717062
C         4.33272156925231    8.62822098103106    2.32505555323140
C         2.19833560683211    7.79317854683747    1.57119256624309
H         1.35642458553928    7.45647826042076    1.00165589301689
C         2.35379601891021    7.82903730207679    2.91693932844408
H         1.63411834297852    7.50883278841081    3.64704056428490
C         7.34165362507683    8.50774174199067    2.38468769351027
C         7.39366265180208    7.66345077692131    1.28432713344371
H         6.51981797574523    7.53537321929306    0.66017955153698
C         8.56194675022289    6.97437257586851    1.01390144918195
H         8.60637191561809    6.30369126517629    0.16880290621185
C         9.66908747765894    7.13281089505546    1.83204616678752
H        10.57404152219934    6.58280468960759    1.62267645807736
C         9.61303848379178    7.97784214893783    2.92875633995126
H        10.47441456933002    8.08864524925549    3.57068612129112
C         8.44843412667196    8.66932034415332    3.20625797243324
H         8.37005049001201    9.32517316516562    4.06277093004587
C         5.87390599889999   10.91486596309142    1.71318860051814
C         6.54540121516888   10.94882585258328    0.49905548937183
H         7.13240297929468   10.09822149824587    0.18426679567042
C         6.46626463429188   12.07994268511229   -0.29433809149651
H         6.99018816693311   12.11158730537984   -1.23810477493799
C         5.71876280588897   13.17052637005654    0.12019311983983
H         5.66100494657720   14.05078034810149   -0.50276721627646
C         5.04776479540501   13.13629080357148    1.33267930808401
H         4.46719403376007   13.98829605431378    1.65432637003251
C         5.12285706104477   12.00814654859677    2.12808212634720
H         4.61448717022140   11.95838739854259    3.08083299850572
C         4.57985048018578    8.31209334178036    7.68964096790477
C         6.80042522026343    7.63895140152267    8.35102624385047
H         7.67922324023912    7.33358468365363    8.88114809892527
C         6.63206668719705    7.81889799633134    7.01843184426175
H         7.37789402572089    7.67227677773548    6.25964763988985
C         1.60116326051879    7.86807522860438    7.59119312344252
C         1.64807739588521    6.89061592707925    8.57538421624898
H         2.53484072565545    6.77950617796495    9.18437943794001
C         0.56313902721488    6.05030422809818    8.74768650155866
H         0.59709845479242    5.27718108489087    9.50074774059479
C        -0.55983492301377    6.18995320087556    7.94791725338178
H        -1.39843760938157    5.52303773024465    8.07929258700572
C        -0.60265258166894    7.16786094491595    6.96719320777430
H        -1.47484453413310    7.26478499306549    6.33772600004677
C         0.47822914959087    8.01112527369954    6.78826318196696
H         0.47961967290404    8.77444121762266    6.02193164972824
C         2.79776886701445   10.32045894214969    8.56684293784487
C         3.40309605007999   11.54010114515585    8.28883638271357
H         3.89581646334689   11.67079941321655    7.33559136791063
C         3.35613430671760   12.56214240163006    9.21857355997599
H         3.82317562759079   13.51191355459996    9.00356964657847
C         2.70911162003648   12.36411894037376   10.42834924522698
H         2.67173694436522   13.16119246700662   11.15604597977213
C         2.10711975847937   11.14740316731395   10.70643020694520
H         1.60138861506404   10.99792376700812   11.64881104332095
C         2.15028535093948   10.12184067972961    9.77834476154652
H         1.67655866333171    9.17348255987148    9.98665278098133

