31
CSD_code = CURVUI | q = 0 | S = 0 | Stoichiometry = C10H10N8O2Pt | MND = 6
Pt        1.68886120399974    3.93037458792758    3.44678557828234
O         0.01115804596673    4.49315937780695    4.47706740514196
H         0.16214974862069    5.32644515568253    4.92987949047470
O         3.30762027977528    3.20090709086777    2.42817897800641
H         3.68125300535870    3.88317541960821    1.86502272658611
N         2.84650163135547    5.11475517921963    4.54619172980232
N         3.75702582875993    5.75471980350858    4.15532180967646
N         4.65273953783234    6.41080145636941    3.94983056667036
N         1.46359901901087    5.42409296321304    2.15442963985174
N         1.16331882099652    6.53361470788916    2.41893838752684
N         0.87584650426950    7.62272532879423    2.49756513172422
N         0.51096294502025    2.63409880945467    2.44001209146451
C        -0.12095688816035    2.89873166252489    1.30846504369379
H         0.03162277503639    3.88851070750085    0.89819792823912
C        -0.93029365650300    1.96590453459622    0.68237624626192
H        -1.43099506347986    2.21536265604032   -0.23878241209573
C        -1.07977459010043    0.71762625061288    1.26873994986998
H        -1.70602306237820   -0.03442238985379    0.81395348599080
C        -0.41117871197068    0.44694757946797    2.44953889649537
H        -0.51386091479380   -0.51757221447714    2.91865987164311
C         0.39078184880207    1.43237728137287    3.02370907768159
C         1.14877750273704    1.25802892140500    4.26540699312923
C         1.17200251353633    0.08054396036080    5.01163337425856
H         0.61172391058344   -0.78214898683422    4.69108268874462
C         1.92460778482067    0.02582606700489    6.17145957519282
H         1.95414668965943   -0.87948121024662    6.75804136034308
C         2.63571340545816    1.14990164621955    6.56531837192475
H         3.23207965718966    1.14921864620685    7.46298257195712
C         2.56870925937826    2.28559970558420    5.77618200852853
H         3.10161603535648    3.19163342771464    6.03370585457586
N         1.85046493386311    2.32864187445859    4.66620557835722

