31
CSD_code = CURWIX | q = 0 | S = 0 | Stoichiometry = C14H11NO4Ru | MND = 9
Ru       -0.55154091178680    0.99941640900489   13.11045415730680
C        -2.07062053598118    0.73206347303164   11.60789706042299
C        -2.70398349655240    1.44797831297369   12.66102117456722
H        -3.20262473410881    2.38781231936103   12.45290028584925
C        -2.68775647040042    0.91696312737531   13.96447354400572
H        -3.17067150566072    1.45978394923406   14.76866515735510
C        -2.08196124810411   -0.33323770051910   14.22716801447871
H        -2.10757333784357   -0.75213204721630   15.22518712447264
C        -1.53684418652778   -1.08011785877214   13.15610619861828
H        -1.13731971996544   -2.07051345357723   13.34063740578079
C        -1.54642291431527   -0.56897791922633   11.84557298037603
H        -1.16748210698290   -1.15888217503023   11.01863819289194
C        -1.76325702390377    1.42528605124794   10.32910416969951
C        -2.60451490110653    1.40512806758248    9.22553538223940
H        -3.53511435495418    0.86053980630245    9.28227332636455
C        -2.25286348256352    2.07610818861684    8.06718451679943
H        -2.91238256794021    2.05568038345138    7.21373007027407
C        -1.05761314082568    2.77171427739692    8.00515347473999
H        -0.78110522274878    3.29532835127623    7.10337612524258
C        -0.21127429364876    2.79935895037384    9.10051774940873
H         0.72115803699505    3.34317709065842    9.05206550522596
C        -0.55423313077811    2.13014472484500   10.26707879738889
N         0.32630006340568    2.15843885110106   11.41570367307471
H         0.49352225451297    3.12270583910837   11.71964853574945
H         1.23980205147050    1.75647774094897   11.18285024012711
O         1.34728616442546    0.36230565314561   13.52798047299698
C         2.12061976205571    1.15751230917981   14.17963047591038
C         1.36641619885185    2.46627537932650   14.68410148305089
O         0.12573608424492    2.48278466057095   14.34456197622705
O         3.29968833292819    0.99460811949998   14.38649445615185
O         1.95153033780859    3.33336911873129   15.28858827320302

