37
CSD_code = CURZUL | q = 0 | S = 0 | Stoichiometry = C14H9HgN11S2 | MND = 5
Hg        9.98353597945623    7.94410599491970   11.10205419357363
S         7.94613256773391    6.57998066474076   10.97757795058404
S        11.96822014336160    9.06088326482938   11.99768180514253
C         9.60470839505457    9.72509393270655    8.27657808619465
N         8.98204075706493   10.53343617813345    9.19141863643940
N        11.30999698942960    6.33841603733742    9.56328230628984
N        10.13798743028950    8.59689048717508    8.73595552286651
N         8.84171731089326   10.17745643535661   10.48018711932492
C         9.97399091696729   10.76871880861690    3.12114210639431
H         9.63349621715561   11.58224959961198    2.51203177649419
N         9.74470653456360   10.76201483859873    4.40367267623034
N        11.29791396031268    6.67089884001120    8.26136457891520
N         9.62134429846394   10.11069819118345    7.01805969874358
C        12.25850823706152    4.70586099154893    8.35502866094550
H        12.74130629716752    3.78214088035724    8.11284763307206
C        10.72966988512225    7.83901711940066    7.81898615657815
N        10.81975332288931    8.13231382617345    6.53712941132096
N        10.29010686968370    9.62621340110225    4.86989244083669
C        10.24010057978998    9.28220401416113    6.18528708861114
C         8.23819053041086   11.18177303810867   11.07239237306645
H         8.00526521047957   11.13818787950885   12.11959276318036
C         7.97664516601943   12.22051910552032   10.15498577043768
H         7.49900856385408   13.15600216234773   10.35931254082370
C        11.86644160543691    5.69709168872873    7.50193059840930
H        11.92816629761348    5.80113389501295    6.43899986483362
N         8.27323408538685    6.31281499453037    8.20340515784566
C        10.68981132534382    9.61024652100376    2.71573563503567
H        11.00804150673850    9.36007843887163    1.72518499102100
C         8.14798936974369    6.43055750427717    9.34285359046131
C        11.88504831765615    5.16079840698799    9.63610313817656
H        12.02051887508869    4.67678310254300   10.58477485809169
C         8.46560258880911   11.77068117557588    8.96207562230005
H         8.50476595120398   12.19927266856663    7.98169239501455
C        12.03993501794509    9.98279259767155   10.62453280791713
N        12.10554270785166   10.63502162768480    9.67706323634022
C        10.87488663346867    8.90119766689958    3.86147185010077
H        11.35336955450853    7.96755402020706    4.06811495836494

