42
CSD_code = CUSBID | q = -1 | S = 0 | Stoichiometry = C20H13MoN4OS2Se(1-) | MND = 6
Mo        1.13634661199531   -1.38262573350967   16.87612017945853
Se       -0.65717160258716   -2.65439149935473   18.23639159745170
S         2.24465312952338   -0.42267686806437   14.87629495346475
S         1.62270461411186   -3.52947539127504   15.79038779203809
O         2.38801063225542   -1.37868828249777   17.92513812849987
N         0.57308090671403    0.45216756783337   17.35189410805609
N        -0.56742015606581   -1.00804495411452   15.68651018280201
C         0.94338748144626    2.48024995001489   18.58004106562639
H         1.52272607475050    3.00111855158034   19.32631033762755
N         3.85836323352444   -5.07872179778546   13.36208599046262
C        -1.12078981988055    0.23441871671673   15.77011946381517
N         4.66245597478603   -1.27548005250081   12.28267860829371
C        -2.23039588769697    0.59701937289788   14.98429782078535
H        -2.63787053043544    1.59137214864279   15.07113307895848
C        -1.13477885529040   -1.88570147562692   14.84746536448738
H        -0.68577769274662   -2.87471638983329   14.81896999139981
C        -2.78234740226285   -0.31502818848970   14.12561688618142
H        -3.63348742368917   -0.05732991561511   13.51250400660901
C         3.92817283743780   -1.53379381185288   13.13030145609717
C         1.24158814161706    1.18558091407733   18.27182643580599
H         2.05575511604108    0.65857903105315   18.75552604773576
C        -0.12249223931265    3.12374747462671   17.92540783304206
H        -0.37907740007845    4.14532205361384   18.15811656080613
C        -1.67033609280746   -1.08767238881788   18.70403433290201
C        -0.81832372989649    2.40858639872227   16.98823221341176
H        -1.64274058894240    2.85613855149310   16.45598815623698
C         3.02744466736978   -1.81265558814120   14.16496091993397
C        -2.84803256471267   -0.77381698241618   18.03641590043451
H        -3.22785436318038   -1.45112007149329   17.28303839479662
C        -0.46484803234761    1.08043533496283   16.70976868667574
C        -1.87246288928265    0.93358781556775   19.98618652544458
H        -1.49194176390546    1.60012035533522   20.74781245211991
C         2.75741758439798   -3.10060704057708   14.54100544701607
C        -1.19502282666491   -0.23317577693667   19.69404043555593
H        -0.28252788896793   -0.49203551691100   20.21632152422060
C         3.37200158716013   -4.17753679408618   13.88572440669634
C        -3.03344486634462    1.25778570265806   19.30021646028542
H        -3.55605735927981    2.17711818193529   19.52424306982311
C        -3.52211840441570    0.39760375152862   18.33285200566505
H        -4.43101864047963    0.64104311868323   17.79924807323015
C        -2.22173862536195   -1.59804198067511   14.06094613758435
H        -2.62923094649154   -2.35095849136639   13.40572696845897

