63
CSD_code = CUSBOI | q = 0 | S = 0 | Stoichiometry = C32H23Br2HgN5 | MND = 5
Hg       -3.27051573389552    3.69792338297339   10.72640004632968
Br       -4.19616212092612    2.35623222172474    8.92018219383100
Br       -3.33979965086692    4.54574182286593   13.03933713286200
C        -2.48436405499989    6.76781457067722    9.59302499907040
N        -1.14730290370825    4.98853743944149   10.43606489562748
C        -4.59071383546912    6.28770092651001    8.82441449931223
H        -5.40149422802594    5.57081442900169    8.79406451070166
C         5.62445277883447   10.81606878289077   16.53303641279457
N        -3.52450361603188    5.93268694688781    9.52371871036251
C         6.40278432174570   10.31016381983144   17.57943037783918
H         6.31643715672374    9.26652128410986   17.84568042006227
N        -1.13808097244834    2.32972653895303   10.99096302533976
C         6.62605568122107   12.98301341365694   16.91838719797116
H         6.72164927859920   14.02491677859198   16.65300439830470
C         9.46972017072720   12.91941559662563   19.23939891333009
H         9.86608867898580   11.92865288364262   19.15891468750616
C         8.12590597269513   14.61094985008456   18.93767819463368
H         7.26498782048714   15.17503412532543   18.64007472845085
C        -0.12423874300316    4.49156270868655   11.12812963615440
C        -1.32116215866737    6.30705993241488   10.37490535913759
N         8.28005116779917   13.28478444042926   18.66000382559581
C        -0.47577432396613    7.19267860210113   11.03248800099499
H        -0.67308090029929    8.25257270439227   11.01595090804773
C         2.72309654154603    9.62647432880658   12.72244317318591
H         3.04778394662515   10.55990007878938   12.28492622498342
C         4.05428134429647   10.18854017683588   14.70420938349082
H         4.17718792325340   11.15199074555541   14.22754506189713
C         0.58014586568125    6.69095305836027   11.79121321604700
C        -0.00480766646831    3.02100183440684   11.13919324610402
C         4.72809999126633    9.91877991146449   15.83270492203007
H         4.63962447075924    8.93833488943486   16.28165737100667
C         0.08925144317473    0.29391687191926   11.12825648845553
H         0.07765383549684   -0.78395319840733   11.11928627065148
C         1.27104693069495    1.00117507321274   11.27531365307100
H         2.21424315212144    0.48557154269679   11.37962826381219
C         7.27768461639261   11.11259565640608   18.27886401579905
H         7.85598626115314   10.70095222432836   19.09200668013696
N         9.11402170439876   15.08646053770816   19.63408103066008
C         1.89728452406751    7.23375197549971   13.82485515559740
H         1.54753039049079    6.31483370136910   14.27164465147782
C         9.96922726380334   14.04478237908121   19.82229177230255
H        10.88327286419795   14.17329523301672   20.36596404145315
C         0.76049495761684    5.30903737424028   11.82046989036203
H         1.56412044838099    4.88168458583643   12.39829669471754
C        -2.49167457792544    7.99963194362154    8.94343638215288
H        -1.62916293103099    8.64549491796179    8.98914326427748
C         1.46436304125997    7.58250765796699   12.54540786164245
C         1.22627133285869    2.38463335296050   11.27821796931103
H         2.13290520601699    2.96254695175446   11.36373023266909
C         3.16937448267474    9.28068506344956   14.00270840053464
C         7.40029189367146   12.46141270789128   17.95327092640862
C        -3.60989532839219    8.36867721974875    8.21592266080145
H        -3.63744856975314    9.31748998519775    7.70081089319481
C         1.88583127187835    8.79792852877650   12.00787989972896
H         1.57363480908954    9.08041466439429   11.01280161415227
C        -4.68503330490374    7.49760359599364    8.15464221756151
H        -5.57481090921162    7.74272805921331    7.59765737427386
C        -1.09054961122061    1.00708947242184   10.98386222535981
H        -2.03649048437103    0.49681561665244   10.85326304037988
C         2.72682102448765    8.06817842817243   14.54113949004534
H         3.02372602834632    7.78009671854430   15.53733435625097
C         5.75375360355316   12.17346904716947   16.22388247483790
H         5.16232242848883   12.60564388572486   15.43218443490264

