33
CSD_code = CUSBIC | q = 0 | S = 0 | Stoichiometry = C12H9HgI2N9 | MND = 5
Hg        6.72412719975539    6.98260518252686    7.68014017356152
I         7.78463100344845    9.33785952182555    8.03409990273250
I         5.63159617914632    4.89224782066457    6.57068155115708
N         8.84004310311735    5.67105596457620    8.54849522312718
C         3.46081702705169    7.46442181247103   11.06165475947828
H         3.32624169808085    7.20489748830814   12.09067789377202
N         7.77236755006837    5.14532038127647   11.88890015846777
N         8.79234674337647    5.29084868977273    9.83701398341378
C         9.92802886359246    4.62785375848876   10.20125529583928
H        10.04088726159310    4.26080093255458   11.20047768764245
N         4.57465943409419    7.54234875280981    9.12702525281850
C         5.69961688059447    5.22227464711232   14.83696227957219
H         4.80025269752693    5.72957839927199   14.55845697538791
C         6.70490227256496    5.42896775458196   12.62217477442861
C        10.72614608901624    4.58721782992054    9.09702543950686
H        11.69676407330620    4.14741992823534    9.00158091619322
C         3.42280992926692    8.14240586968029    8.96717250867301
H         3.15504615899122    8.56855104437475    8.01959247008019
N         5.62606518076510    6.07900962218034   12.18407836068954
N         7.74413987706332    4.37397370953141   14.46879158218516
C         2.67326503815359    8.12273448653417   10.16487403231900
H         1.69980616625719    8.53767069260381   10.32252496407133
N         4.60652834072603    7.12476313626277   10.40386174922137
N         6.70531925736666    5.02851205389969   13.92346397410593
C         6.12373170683235    4.66697366537155   16.00383071499304
H         5.60726030404202    4.62344238504082   16.93990222044820
C         5.68088079231622    6.44898004317536   10.91624681430479
C         9.99395531632277    5.25638514121372    8.09016542185668
H        10.27489768706542    5.43947971952153    7.07082686076153
N         6.69793708595072    6.21776377146485   10.09515491949547
C         7.71768916565339    5.55959193739682   10.63679983138456
C         7.41402395857354    4.15089643899365   15.70951214520147
H         8.08551595832017    3.63584741835759   16.36717916310958

