44
CSD_code = CUSBOJ | q = -1 | S = 0 | Stoichiometry = C22H13MoN4OS2Se(1-) | MND = 6
Mo        4.85138906238501    5.90238663687900    4.43918402043039
Se        6.76355124965964    4.83741906088381    5.80947350682182
S         4.53319441944795    7.42424999962636    6.32906085225895
S         3.67834256433325    7.66270851854692    3.14868882985315
O         3.61400572249627    4.87714237659613    4.72815322391464
N         6.53785192867329    7.06257542093921    3.76479397752811
N         5.32431756842446    5.07167076103584    2.71359102778505
C         3.03294846424260    8.69368112899394    4.40265624421687
N         2.49366312036039   10.22427455439366    7.46389572950765
C         3.39800265160112    8.59672547715184    5.71804035253887
C         2.89001699375204    9.49655146928902    6.66618650673422
C         4.67296518949910    4.02771612312418    2.15964633219603
H         3.87573595783362    3.62146571805249    2.77071037065877
C         8.22521027955019    8.76004013816105    3.78124044984046
H         8.67843357124083    9.57700037554336    4.32063465941761
C         7.81055590237640    2.41930546481162    2.57253798326597
H         7.40564853046882    1.54039660926055    2.09008267984699
C         7.16140712178609    8.07909307088881    4.35288048711263
H         6.79708025663095    8.36136964642785    5.33630720342615
C         4.97394031817584    3.50984932111040    0.92297326234500
H         4.40072340269928    2.67319782468895    0.55295576222324
C         6.01091495951777    4.04213668660119    0.15581657137448
H         6.26400373222142    3.63265528105672   -0.80962932102736
C         6.99786478169379    6.68681967607342    2.53983857182865
C         8.45118294289007    6.82336855677478    0.59623032718146
H         9.27420313872309    7.30445534628460    0.08574966214959
C         8.07671604101562    7.32467621490929    1.87594691699287
C         7.69830137517148    4.07206712301833    4.31204706524636
N         1.40430109154313   10.47896837381875    3.58673328247480
C         8.69256159035793    8.38895692990109    2.52846763580795
H         9.51845932623795    8.90969971671984    2.06509073000295
C         9.46370695450559    4.15059539125129    2.68327398854567
H        10.35007289661994    4.62881832418948    2.28902817510993
C         7.80145583918821    5.77837611476493    0.02964518658073
H         8.09747443926308    5.41074230136702   -0.94310432462915
C         6.33162180593468    5.60499614579627    1.95311912478767
C         2.13700420039642    9.67854844527041    3.97008941388212
C         8.84874994600064    4.66841967452882    3.80906565439616
H         9.25343466389121    5.54128173016187    4.30414421613318
C         7.19216247202746    2.93206048501848    3.69564429788974
H         6.30287375156771    2.46702375643193    4.10218282501176
C         6.71439820838944    5.12224906751207    0.68138923358822
C         8.94260534506010    3.03195618740451    2.05709124739849
H         9.41804622214472    2.63530877475439    1.17114605735111

