31
CSD_code = CUSCOI | q = 0 | S = 0 | Stoichiometry = C7H14CoN5O3S | MND = 6
Co        4.99769980566821    8.72072503512035    2.83413093711572
S         3.12951242409812    8.42010098008694   -1.17054758344819
O         6.41514157202980    9.45385031405812    1.90416673993561
O         8.27082411927715    8.97370870184017    0.82021993035335
O         5.32343078184151    4.85217710649514    2.22797560896861
N         5.62378554191202    7.10876164109257    2.26236145062106
N         3.60128501153390    7.61987870544209    3.80700145848208
N         6.27972352061288    8.73225064612659    4.49489145073178
N         4.52252130026542   10.60198198924825    3.52681707379290
N         3.83359181168337    8.88272197777785    1.44430684093789
C         7.23109858399063    8.62405198831608    1.33285373156034
C         6.79540073028152    7.15330027447554    1.41622739004093
C         4.96585510876436    5.98445049589725    2.50273191584858
C         3.61966045435294    6.26639023819326    3.20746252417928
C         5.95917655071824    9.88130871119215    5.34615921065052
C         5.59760814573510   11.04343390534076    4.42238614825132
C         3.62855156843150    8.64390793136123    0.30159956747464
H         2.65948312246584    7.99785020359292    3.72534431332315
H         3.80421814077630    7.53415909439088    4.80088262249692
H         7.17488745397351    8.90768659094764    4.03693360613197
H         6.39782793776268    7.88462416166945    5.04568688717186
H         6.79472016077085   10.16313088175943    5.99828428322494
H         5.10083140818015    9.62929802065689    5.97697858487215
H         6.46620036212380   11.28347780253610    3.80618994831580
H         5.31661304152805   11.92695575440686    5.00661333907935
H         4.51415580926815   11.17896975967479    2.68798515466691
H         3.61506690145610   10.71345365154046    3.97466953898989
H         7.60971390275659    6.54241130670101    1.82265759393817
H         6.56915952583451    6.78477326263106    0.40904574053637
H         2.86064170398894    6.20714498028331    2.42506875984592
H         3.41841349791950    5.48586388714383    3.94581523191104

