83
CSD_code = CUTCUR | q = 0 | S = 0 | Stoichiometry = C29H49ClIrNP2 | MND = 6
Ir        0.31923610526990    4.58329552314295    6.10559252955221
H         1.01746629312916    5.76821604402826    6.75886542393521
Cl       -0.86939207592621    2.69148818117229    5.12269426663752
P         0.21799113162634    3.48414548294232    8.18398456174467
P        -0.14041516959336    6.03456073342575    4.29253490989155
N         2.24876790167374    3.74466248461920    5.37245510363703
C        -1.49486633557368    5.26756839143228    6.72854355823548
C        -2.22928243039571    4.53921770453242    7.66713018023448
C        -3.51390770504587    4.93579500290543    8.01266468078503
H        -4.07812035778834    4.35672971053891    8.73201466696165
C        -4.07578180441697    6.06415321977381    7.44377491432137
H        -5.07638063369188    6.36747743528003    7.71521594100765
C        -3.35023530174628    6.80351590274007    6.52691652793823
H        -3.78532569645359    7.69053862197958    6.08530583810848
C        -2.06917870221872    6.41057488149314    6.16711066941516
C        -1.61336865057691    3.31159218606152    8.28480615778283
H        -1.87140494802287    2.44380798758952    7.66868057165669
H        -1.97317243246710    3.13721396637674    9.30229930288341
C        -1.25484066649966    7.21014377605953    5.18556581586963
H        -0.60841391765782    7.89406675741944    5.74527342164425
H        -1.88261654003613    7.79627421616372    4.51087674163934
C         0.61321720890952    4.56069565218827    9.71398590309982
C        -0.29578082545355    5.79176788268852    9.66853680272224
H         0.01300275997085    6.49627873480411   10.44048249831633
H        -1.33516520668347    5.53154886483933    9.84688910539819
H        -0.22711288133768    6.28752443783685    8.70419481529111
C         0.38632665074066    3.87572250378985   11.06089621438675
H         0.50398368185737    4.61486476481809   11.85378657477884
H         1.10372333862263    3.08244491573999   11.24912852717842
H        -0.62184804793423    3.47478797071337   11.13662436266802
C         2.05749429955431    5.05476325412579    9.62047543023658
H         2.26136876694645    5.75227796595003   10.43234562218928
H         2.19956172969145    5.57927074983551    8.67876947805786
H         2.77709520093398    4.24515149530484    9.68596699981773
C         0.85152337658786    1.71171824649675    8.51482907414333
C         0.00000537802344    0.93026105955671    9.51658931678343
H         0.42958839858111   -0.06444737727455    9.63884840044151
H        -1.01552206066038    0.80639843873849    9.14950125430685
H        -0.03671833770954    1.39671574139769   10.49426085372233
C         0.80448571389845    0.95970817799923    7.18423951699382
H         1.14286513046334   -0.06701450483489    7.32644395682350
H         1.45168392318934    1.42995290323547    6.44729365123530
H        -0.20069859142758    0.92981907026353    6.77382974753694
C         2.31462867492610    1.73846304361983    8.96104405006865
H         2.72322621418654    0.72806670351029    8.92413812721130
H         2.42953006154809    2.10088962536667    9.97869414455095
H         2.90431592953439    2.36237826112307    8.29022802399784
C         1.24370799333590    7.18661470698534    3.64672581203612
C         0.76496589321795    8.55207618362628    3.15139984884265
H         1.63580530369527    9.15799762541168    2.89932009773384
H         0.20964545513403    9.07818979569117    3.92312191038010
H         0.14874106592227    8.48354572451102    2.26346158918237
C         2.19967867519012    7.43648917757473    4.81560763787481
H         2.99114176686125    8.11857288390545    4.50521623339069
H         2.65820503467893    6.50787308825697    5.14291565730059
H         1.68252075168675    7.87943548354595    5.66305772131285
C         2.03621159493758    6.47385047148083    2.55044386408316
H         2.95501727125486    7.02227476699691    2.34088312992289
H         1.47393633196243    6.40543747026129    1.62313706740994
H         2.30969721329560    5.46940326446781    2.87273426004689
C        -1.23909289483122    5.50356500808361    2.82887532832906
C        -0.61492796074584    4.28524226120338    2.14671055574584
H        -1.21972122125208    3.99543634449683    1.28764734191598
H        -0.60419549295119    3.45033596200043    2.84191223862637
H         0.39726441778717    4.47567115002898    1.79966257259728
C        -2.58665564457570    5.07636938695665    3.41686181131988
H        -3.17438436843895    4.58060880973454    2.64479149989503
H        -3.15938177510348    5.92289394587229    3.78614792216309
H        -2.44692078530401    4.37055746880543    4.23063420865963
C        -1.50247044185566    6.59395825782565    1.79033894165263
H        -2.27926159029949    6.24157415312855    1.11118018635946
H        -0.62165840072295    6.80953130310885    1.19109398005709
H        -1.86253072276100    7.51158888153583    2.25005204681019
C         2.25021761299012    2.95242918477890    4.30227068070448
H         1.28557499244699    2.74769272137999    3.86062644193884
C         3.39937580579265    2.38121631230928    3.78316797352353
H         3.33583854104163    1.74816459549467    2.91208966584646
C         4.61343194626497    2.63427006334724    4.39991793844083
H         5.53005014548602    2.20541163019472    4.02340789259281
C         4.61638769660162    3.45183869464338    5.52015932773937
H         5.53242528550078    3.67668754651894    6.04414925431816
C         3.41945019538548    3.98171683126854    5.96531464804564
H         3.39387175801013    4.62413205305644    6.83423447724791

