52
CSD_code = CUTDAW | q = 1 | S = 0 | Stoichiometry = C24H19AsF5O2Pd(1+) | MND = 4
Pd        8.36020424311610   16.52803631987049   11.02495073892713
As        6.23122090334707   16.05796699850493   11.78038111542386
O        10.41686661447756   17.08327744460136   10.09041416080732
H        11.15612380058004   16.48532585360915   10.24861596110403
H        10.67228368065004   17.94814409685153   10.43984152469525
O         7.61881197680552   16.85417087675733    8.91014731930428
H         7.80530691171453   16.15545269778666    8.27159101295382
H         7.88673380753323   17.69122994447012    8.51123680789065
F         9.68896755518657   18.46381579135294   12.63314411920622
F        10.57900215981519   18.43224267117714   15.31562034516624
F        10.18351014866052   16.17323691372808   16.79104496473449
F         8.96318089124494   14.00347675540469   15.69102635347029
F         8.11608710414874   14.12403458970460   13.02956536394700
C         8.96925423684804   16.27874025977103   12.85638147450361
C         9.57155245316979   17.37324067614399   13.44856062328841
C        10.00401542307865   17.36595978993300   14.76567534229999
C         9.80164417917835   16.20584954164924   15.51746145234000
C         9.18106711539948   15.08925295909013   14.95304045183493
C         8.77622793627593   15.14824753536772   13.62684348955917
C         5.66373385745182   14.47091002787109   10.83071633089634
C         4.35769847629489   13.99377434928739   10.83571092437922
H         3.59185724261592   14.51613242713931   11.40032891582439
C         4.04869228408242   12.84188126786468   10.13073860167758
H         3.03647343098626   12.46709622105149   10.13072726483548
C         5.03747084928522   12.16642235848248    9.43288451704799
H         4.79137107883939   11.26753478307880    8.88926998911472
C         6.34328673979058   12.63264775239602    9.43904879060998
H         7.11108898232697   12.09181623632802    8.90638779651948
C         6.65722252301290   13.78551075152247   10.13708648686952
H         7.69170810997645   14.15736719593888   10.17553357521563
C         5.76068989773465   15.88916893714378   13.64899429430548
C         5.91515971878177   17.01398818174388   14.45595437947468
H         6.22999937015971   17.95334292153490   14.00657731007393
C         5.66760056600875   16.92587572816105   15.81370292161063
H         5.78598860973852   17.79539279307562   16.44218811456562
C         5.27107472463433   15.71680961302930   16.36634612439351
H         5.08551902369802   15.64749462362090   17.42684262387351
C         5.11620045553640   14.59794721251215   15.56406778633383
H         4.81084411770679   13.65895009560146   15.99936294217195
C         5.36389841006994   14.67803985903522   14.20332228292190
H         5.26678259342314   13.80289125153753   13.56892557947964
C         5.30517961396262   17.67006933143309   11.21502726434684
C         6.09567749521529   18.80019818893381   11.02080629114798
H         7.18675103746592   18.73470814829675   11.15945778494967
C         5.50908735365047   20.00317922298640   10.66746823289878
H         6.11886938631317   20.88235568160072   10.52215452145274
C         4.13441277830598   20.07817885101447   10.50509098439503
H         3.67694351483433   21.01517915048345   10.22812151564304
C         3.34568514039385   18.95611929093279   10.70181089382277
H         2.27541150229875   19.02041506118800   10.57897630630891
C         3.92731198510598   17.75133371714962   11.06147462901643
H         3.31304798904781   16.87276705230884   11.22495140235596

