44
CSD_code = CUTLUA | q = 0 | S = 0 | Stoichiometry = C19H21ClNORh | MND = 8
Rh        0.97787208427208    2.05249095300691    2.96099456241323
O         0.88538718637961    0.38604451042538    1.63766532342218
N         0.03456251084770   -0.50724815869987    2.03103858154165
C         3.11933246230584    2.19696989359627    3.38407787789112
C        -0.18978984738083    0.80301479573506    3.98972963662935
C        -1.43506782841039   -1.33703969484811    3.74951447384124
C        -0.53330730667282   -0.36015930029496    3.26405415303073
C        -1.99267849169920   -1.12722699963231    5.02257906511707
C         1.48401158831219    5.25478738137240    1.89778632574722
C        -0.79139937994500    0.96384045878404    5.22228215265284
C        -0.25697252977003   -1.54431755289339    1.25495926871989
C        -1.67336036520874    0.00324128950165    5.73117748187577
C        -1.73114538437736   -2.43904353446984    2.91998342311517
C         2.57467408757807    2.25495792614420    5.92735811359829
C         2.87831426153909    3.08096552494672    2.25441558331800
Cl       -1.04364168913297    2.73681610819073    2.10549530934747
C         1.59665080603646    3.78784307706079    4.04045278908576
C         1.97385984223684    4.06659731411462    2.66098738185057
C         4.17073188168696    1.13308762134349    3.40310412627817
C        -1.14533518918681   -2.52677827152713    1.68388913392163
C         0.79131314405035    4.73157439411068    4.87869205349850
C         3.60183030664974    2.97249532521301    0.94888247576523
C         2.40853759692326    2.70119514973514    4.50837033905426
H         0.22741492562079   -1.57024706452768    0.29156034539648
H        -1.35950256691766   -3.35084568179409    1.02231228177467
H        -0.60180496616004    1.85242043921287    5.80735513792659
H        -2.42434863380181   -3.19058092735825    3.26400877225066
H        -2.11760673390238    0.16690412012191    6.70269002284805
H         4.00989461663855    0.43521917134879    4.22168065727958
H        -2.68218461028097   -1.85654974220747    5.41995141238498
H         1.72960142635200    6.16712722713926    2.44253947556500
H         3.18565527717529    3.65537859285599    0.21302528031985
H         0.40170681315123    5.21155319642606    1.77734148007416
H         5.15333886279611    1.59222569386512    3.53081866780612
H         3.44140630706784    2.75796945033249    6.36081959493708
H         1.37852108287497    5.62744600976028    5.09018380127196
H         3.53057763407715    1.96085759042362    0.55249746053347
H         0.50670858654331    4.27744169754312    5.82452308402639
H         4.65795885312395    3.20996923595623    1.09114700528718
H         1.93674457562369    5.30150341346462    0.91100758696493
H        -0.11259131658304    5.03057895158537    4.35197973067614
H         1.70304188014290    2.50523975830065    6.52620997384668
H         2.73675975851804    1.18108765145463    5.99041147300187
H         4.17562848090604    0.57759300518759    2.46764712411574

