57
CSD_code = CUTQIS | q = 1 | S = 0 | Stoichiometry = C22H22N7O5Zn(1+) | MND = 6
C        11.72869733931854    4.87907200947168   10.82202075335988
H        12.72610518254072    5.05072404099080   11.20194962329537
C        10.80889576164317    4.15724908797293   11.56622553312208
H        11.08112056606560    3.77001970066328   12.53440739003113
C         9.55109490897520    3.93194851709440   11.02665211074704
H         8.81282052304832    3.35627480877968   11.56288342456005
C         9.26576088083129    4.46380627117557    9.78340860097209
H         8.29831696252773    4.31870883405395    9.32968204605813
C        10.24840385363615    5.18630293488705    9.09493389017578
C         9.91536110387746    5.75287419641485    7.81247158939891
H         8.90024513426281    5.59552290616663    7.47083900792334
C        10.69869876018790    6.47743998093426    6.98839321838770
C        10.19651006451185    7.09718836725921    5.73807256053559
C        12.33954607641653    7.60777347428789    6.12414739520796
C        13.65532682507338    8.24291838944219    5.92123877903285
H        14.32490389954254    7.97489653858264    6.73196971828630
H        13.54100559136081    9.32612232217208    5.88244697224692
H        14.08673162848898    7.92616527209642    4.97232710707671
C        11.30450889005460    8.59435938244212    4.06555607637246
H        10.30601883346669    8.51620196454983    3.63575838879253
H        12.03545495860588    8.21621126117467    3.35033909346674
H        11.52071627162097    9.64033485363421    4.28493300822547
C        14.52353872886082    4.81417951814170    5.80173565628548
H        13.52020880068191    4.96511580757932    5.42876339656737
C        15.44202484248759    4.08101333814732    5.06705999422611
H        15.16295177458604    3.66490264325540    4.11290930120040
C        16.70781863927414    3.88232603356445    5.59836109389809
H        17.44558548273767    3.29927349949958    5.06946376342256
C        17.00200492726534    4.45110068232153    6.82308990429119
H        17.97598263964539    4.32781799210080    7.26921855819082
C        16.02022610526296    5.18335982330067    7.50237451552866
C        16.36195849988267    5.79025017641504    8.76386137472312
H        17.38297564548159    5.65430643861922    9.09718068087798
C        15.58132203377597    6.52940956176889    9.57751096071487
C        16.09534743142915    7.18819994810152   10.80289658391870
C        13.94149437208022    7.66561353803170   10.43580610149445
C        12.62249524188837    8.29286738816143   10.64214271848401
H        12.72661095207922    9.37776288963072   10.65167173362936
H        12.20853429983863    7.99662449282180   11.60537413810463
H        11.94353278063578    7.99772629944371    9.84881019039155
C        14.99600436907590    8.71744002180321   12.45178766513328
H        14.76361955857481    9.75465031907006   12.20845923439958
H        16.00197191230745    8.66244893894969   12.86756809449652
H        14.28101917527367    8.34971273119848   13.18828978349806
N        11.47407927210149    5.37463583403425    9.61659653299422
N        12.03036887639705    6.83627952542999    7.13723880321723
N        11.31015955280955    7.80780352913111    5.26983921576910
N        14.78693153605007    5.34513929066343    6.99001934302291
N        14.24386973715102    6.87066726420914    9.43880944371686
N        14.98121508231404    7.89922613546554   11.26887269314106
O         9.11728171356442    7.06734032857555    5.21524476469900
O        17.18284044405235    7.18419528430256   11.30917526495497
N        13.14362847403615    3.23315407238829    8.34939461101574
O        13.82526829181264    3.90452462022834    9.14875275680958
O        12.45941537662964    3.87051205199500    7.52486688347518
O        13.14586164991450    2.04177102689523    8.37247736133574
Zn       13.13620776398332    5.62593384051233    8.30692059509416

