95
CSD_code = CUTZUO | q = 0 | S = 0 | Stoichiometry = C39H52N2RuSi | MND = 9
Ru        3.93309740345127   10.65913551177616    4.31294032113290
H         4.06886989925943    9.51530736801255    3.31691598175705
H         3.68308004705977   10.68946603279071    5.80927373008911
Si        5.61200705172725    9.17959514038950    5.24023818618136
H         5.47113400564109    7.67782981659889    5.15790247240133
N         1.32289681903830    9.65250933295977    5.60934322260881
N         1.27116615481169    9.42177226410986    3.47134072777175
C         5.33237668179610   12.39945959206342    4.26403798175644
H         6.24182864098523   12.58883052992590    4.82133763013131
C         4.04555685095754   12.90202249968254    4.59788642269093
H         3.82253455050560   13.52837260204349    5.45174341116739
C         3.17628341728277   12.66096447616362    3.51227146306657
H         2.16709543295167   13.04204405363102    3.42442527770110
C         3.89939809602067   11.96689833623878    2.51863667363196
H         3.56420907329280   11.75342988716623    1.51169450894213
C         5.24190789338343   11.81395379423688    2.98118346199519
H         6.07612758871891   11.48392849427558    2.37379172551484
C         2.08836371039862    9.81054502853669    4.49346266998118
C         0.07336122647939    9.18435585594821    5.28586628813588
H        -0.67463944044095    9.00199662170505    6.03034891084100
C         0.04221951811636    9.03399190739876    3.94755507387798
H        -0.73181507258249    8.67846964654416    3.29951971104419
C         1.68108166898200    9.85392845547416    6.97466199123976
C         1.32503689352079   11.05463629858522    7.59377753375820
C         1.57225465935125   11.19134730066358    8.95304559636214
H         1.30209336086712   12.10533615539320    9.45826522840366
C         2.16172237136452   10.16739101079625    9.66764710955719
H         2.34838687536262   10.28789851330813   10.72450419521907
C         2.52049405692463    8.99147420527961    9.03611731610147
H         2.98995538912429    8.21040383229640    9.60990727588850
C         2.28588358709954    8.80773851370515    7.68101460814228
C         0.68899356657582   12.17925138136906    6.80777681718669
H         0.91162058385279   12.02130756341534    5.74661975544033
C        -0.83105469527058   12.17018623439238    6.99473124409213
H        -1.28023140731244   13.00446699412736    6.45962770907177
H        -1.26645441083379   11.24785664611777    6.61829335879563
H        -1.08033736100431   12.26214635047384    8.04973329097242
C         1.25491938020228   13.54385614676939    7.20596796661288
H         0.98424694770942   14.29136999771924    6.46247801067392
H         0.86073348842630   13.86993977905987    8.16520275581290
H         2.33862041959390   13.49848507745654    7.27774402391595
C         2.66093011581426    7.52477723947062    6.97657729854746
H         2.99962963032654    7.79889094973417    5.96915771918797
C         1.45035301846359    6.58811461889244    6.87442091473676
H         1.75333724837687    5.64748861379306    6.42105497704479
H         1.05314234810527    6.38007400331596    7.86617068164423
H         0.65802742828406    7.01643227979532    6.26761773824990
C         3.80457867838405    6.78183988535724    7.66399833535310
H         4.17043338953326    5.99808367740865    7.00611512416167
H         4.62729718185871    7.45724953943562    7.87472625680680
H         3.47164480351413    6.31546207604664    8.58860668952615
C         1.59911723954387    9.28410207426973    2.09344215376012
C         1.12149296278227   10.22454312293553    1.17517973169335
C         1.42860400333968   10.04407226209802   -0.16789952040103
H         1.07600985334426   10.75571323922813   -0.89816662993914
C         2.17474211569673    8.95913153282234   -0.58324759413389
H         2.41053924679453    8.83832916685687   -1.63038706069486
C         2.59786952351964    8.01435856397479    0.33280761246857
H         3.14962264523601    7.15542273826049   -0.01320312637198
C         2.31372425796519    8.15124904973810    1.68398579328778
C         0.22841360123988   11.36977831326884    1.60113106364341
H         0.31714050023127   11.49928723233431    2.68503854198316
C         0.58931253654313   12.69642400247156    0.92852743545093
H         0.03630996869598   13.50821270540215    1.39817486416556
H         1.65097287261390   12.90979300108332    1.01508064880418
H         0.32797434501329   12.68533870623822   -0.12669481635148
C        -1.22929824665592   11.02526420271680    1.27414427006415
H        -1.88444644567717   11.83601712839082    1.58567749807060
H        -1.34866152777391   10.87635361253119    0.20321060535548
H        -1.54499817101384   10.11680560581423    1.77992519026949
C         2.68515289502662    7.06597839985039    2.66868698208639
H         2.73387523842372    7.50221978252424    3.67146296588100
C         4.05440038446034    6.45034120407089    2.38841420945299
H         4.33175790782582    5.79828296938743    3.21229364502883
H         4.05336476297481    5.86050265635828    1.47535416119502
H         4.80323742582000    7.23355109679602    2.31265935431046
C         1.59707011097247    5.98666370030955    2.64950200362427
H         1.84661450580951    5.19592248668808    3.35239350788144
H         0.63140338261012    6.40216136420364    2.92919670907006
H         1.50964541629079    5.55272518943484    1.65543186687681
C         6.15644792800686    9.35511668789897    7.08076602216511
C         5.62441505377963   10.29383505382489    7.95591207873790
H         4.85648549121696   10.96798441958056    7.60330171055314
C         6.03908579067292   10.37837529301413    9.27350852560988
H         5.60018839677631   11.11680599699477    9.93101067599572
C         7.01215538634965    9.51813223358807    9.74991273065349
H         7.34059758191782    9.57957033416386   10.77813905507145
C         7.56010353064911    8.57489088614296    8.89635109257252
H         8.31976542776247    7.89592102258373    9.25928096194255
C         7.13272298011022    8.49876629113577    7.58363106638072
H         7.55780021661557    7.75067433866497    6.93071764431459
C         7.29482440718612    9.40210994813765    4.30941360887883
H         7.18583793251052    9.19580828565058    3.24910134864441
H         7.69741288515364   10.40559941252808    4.41427385713896
H         8.03809491353125    8.71555255413186    4.70098017980093

