61
CSD_code = CUVBAW | q = 1 | S = 0 | Stoichiometry = C27H28ClN2P2Pt(1+) | MND = 4
Pt       10.37006408833809    0.74745001508907   18.27447603689277
Cl        9.73645899319573    0.25569644477793   20.42358142332724
P        11.26650344928516    1.18066470063566   16.25230348828682
P         8.59992640389992   -0.23599713769331   17.28219491354594
N        12.20552152822578    1.55812896812348   19.05955903706453
N         8.23899143171622    2.52028681662827   18.25128090254901
C         9.97638859101143   -0.84240307202172   14.84032439963819
C        11.37148965068632   -0.33116631529121   15.22172781278804
C        12.96807823380177    1.62759192285246   16.71863475096426
C        13.96612309537968    1.85520984386584   15.77665072428777
C        15.24398927943263    2.18559337318208   16.18686749123651
C        15.52936891163518    2.29549135892462   17.53920200283602
C        14.53763400743097    2.08861026812569   18.48257864558920
C        13.24951201972636    1.75954180938190   18.08114756869138
C        10.70805220927742    2.54038021725142   15.19738449495060
C        10.53411752265321    2.46315281437408   13.82107677413535
C        10.07161696596000    3.56841264117915   13.12766102494028
C         9.78871328073706    4.74748528065826   13.79600458967742
C         9.97069742662291    4.83009208860000   15.16785165330080
C        10.42266131549522    3.72893281187050   15.86655778651936
C         9.17277439248846   -1.43471886392990   16.00113606035940
C         7.66043189424765    1.04682352996517   16.42313709096793
C         7.05912202755278    0.84389632262574   15.18435383220683
C         6.49220912743224    1.90157804870424   14.49935790989326
C         6.53294172230923    3.17537304160246   15.04590147483246
C         7.09307003637647    3.38451889225464   16.29078695493296
C         7.64569471479343    2.32557285555797   17.00665022666740
C         7.45074953181349   -1.20004970673042   18.28975618317076
C         6.09642985170941   -0.88732167730454   18.34190895505298
C         5.25314156973255   -1.63596794475441   19.14422837396899
C         5.75721283408034   -2.68552131508554   19.89474742955032
C         7.10894820414040   -2.99305333360308   19.84785456657815
C         7.95799062807285   -2.25108902441896   19.05013209110740
H         9.40420362423339   -0.02894477866242   14.38747218512696
H        10.09681167444929   -1.62557248736055   14.08680477203787
H        11.90525339281417   -1.08328162812569   15.81194494187770
H        11.96044345986459   -0.13073836074150   14.32199992224296
H        13.73147931711589    1.77328946156081   14.72526560561290
H        16.01852852815324    2.35626611162844   15.45612508417240
H        16.52687394308516    2.54864178271382   17.86186272033317
H        14.76515602561499    2.18400021338089   19.53473587454161
H        10.76038388267876    1.55523206990746   13.28279858067179
H         9.93446234484579    3.50808753027464   12.05901487855033
H         9.42820413511361    5.60354282399965   13.24721148729273
H         9.75697418276524    5.75208869314519   15.68637525227257
H        10.55503486262481    3.76821646657687   16.94074081542800
H         8.28485342153419   -1.94216547822570   15.61024959143419
H         9.76878803283831   -2.18653614896664   16.53007171746137
H         7.02646069115741   -0.14847578241429   14.75976591207134
H         6.02568874354818    1.73631267709177   13.54131997268365
H         6.10690501142531    4.00646139687133   14.50604209455775
H         7.09860866793155    4.37464632845198   16.72236606444686
H         5.70912764954814   -0.06444603271894   17.75633722563676
H         4.20186192574074   -1.39531132331019   19.18740011714963
H         5.09683899482889   -3.26154428236865   20.52440575666630
H         7.49956626594567   -3.80507250611152   20.44168134964069
H         9.01827408828391   -2.46324224677567   19.02698171368367
H        11.98763541821213    2.43331542820053   19.54423543604360
H        12.50688861974017    0.90373641096606   19.78834918296080
H         8.14187889522401    3.46711186082257   18.59512777100079
H         7.96198926141920    1.84858612479084   18.96199730389067

