98
CSD_code = CUVBAY | q = 0 | S = 0 | Stoichiometry = C40H54N2RuSi | MND = 9
Ru        2.18726599840381    6.52096968315806   10.93418409482066
H         2.49331564556116    7.97585530520272   10.64488585372078
H         2.16449788710510    5.78727310230412   12.26816853047828
Si        0.59916570124639    7.76643878832917   12.29945761517014
N         4.91740764544361    5.78308988752136   12.12967957810467
N         4.98514776646071    7.77284502144864   11.31813034824687
C         0.72525219816482    5.05356904200565   10.19225688237118
H        -0.06043718579945    4.52757241903047   10.72000531220203
C         2.03384510932104    4.54293023971521    9.94816526381710
H         2.39081275796112    3.57459322262640   10.27445497284162
C         2.66316871003279    5.39833017739659    9.01494162025016
H         3.60957700157358    5.22112542207482    8.52147028421057
C         1.76828950420528    6.44724171010858    8.70965848928962
H         1.90487155006423    7.19080316443076    7.93458763214613
C         0.55989590315341    6.22578797420301    9.41847096657014
H        -0.36422383734556    6.76789317273851    9.26214384845978
C        -0.05492985684788    9.44975309888668   11.59540356057972
C         0.48672383964843   10.07135472876862   10.47558609395250
H         1.31870835384737    9.60629335300912    9.96545820277252
C         0.00151272599094   11.27888830479334   10.00450502880823
H         0.45060384437046   11.73751423006669    9.13362005742174
C        -1.05448538226807   11.89976694415795   10.64790294431938
H        -1.43877432950516   12.84267520849122   10.28431978557063
C        -1.61316326731545   11.30002465444313   11.76386025709413
H        -2.43894551637535   11.77624217248928   12.27505699725727
C        -1.11588034663576   10.09499375489444   12.22598160746809
H        -1.56154812064500    9.64542888511015   13.10073827991642
C         0.92072646806426    8.18857233349477   14.17589408854828
H         1.97264289336694    8.19025422385743   14.43746844807216
H         0.51554311785953    9.16436507869543   14.41932222497615
H         0.42808985065575    7.45917230762764   14.80878312099871
C        -1.06214562569246    6.76870082124369   12.47075943266311
H        -1.58645404993290    6.66351153880285   11.52550617744065
H        -0.87951932727773    5.77278344610948   12.86383466239471
H        -1.73579640345162    7.26825136528473   13.15988237804832
C         4.14033254696176    6.71946155981328   11.51166853028024
C         6.19036174653790    6.25660805237047   12.33324086358304
H         6.93966436960505    5.67540331516838   12.82989133748603
C         6.23416475717019    7.50083201753175   11.81876489181424
H         7.03581503494728    8.20842427115391   11.76082151447882
C         4.57577857846370    4.44952095918390   12.49365682225895
C         4.93904953547120    3.40399614574437   11.63621890838196
C         4.64959414167230    2.10376791859070   12.02971520832466
H         4.91627968427643    1.27779467109377   11.38907717982189
C         4.03179642029241    1.85124269737605   13.23878801247142
H         3.81140045438558    0.83383836282760   13.52717334806835
C         3.71575714159419    2.89328024088375   14.08916263337797
H         3.26107179611772    2.67510697019662   15.04176456017471
C         3.98507873342553    4.20903161369298   13.73800295149190
C         5.69512005036284    3.65690156920586   10.34933161352277
H         5.55240983724125    4.70311327525292   10.05935933260242
C         5.22763543963127    2.77494117598359    9.18912085293809
H         4.14685695192764    2.79826591167442    9.08212873380318
H         5.67177208964642    3.12722348564375    8.25960916181591
H         5.53632468967562    1.74222587301542    9.33119733697526
C         7.19209125564812    3.42051982791787   10.58143812057371
H         7.74443793373519    3.59000432394551    9.65946663717914
H         7.58520480748676    4.08897711246470   11.34226376653217
H         7.36411416867334    2.39588255788494   10.90416852747896
C         3.72016545610472    5.34243730129966   14.70135429483165
H         3.62609408007401    6.27074803783911   14.12704902914763
C         2.42020074742222    5.15804213389932   15.48108527120995
H         2.20984103006706    6.05812856029551   16.05224569257570
H         1.59730714619775    4.99085280520482   14.79180792874391
H         2.48226396707050    4.32530200586695   16.17723517425220
C         4.90480531014734    5.46952132414498   15.66539025997390
H         4.72702246547597    6.28097387691319   16.36687590596096
H         5.03676107502667    4.54746962707457   16.22821648898939
H         5.82634663710510    5.67827904842998   15.12680219750404
C         4.74473874204611    8.98828773715647   10.61253736912407
C         5.11760447463185    9.05786349369856    9.26673918413081
C         4.96192687055904   10.26837796692510    8.60417795423778
H         5.24366769300490   10.35165225081548    7.56613875082472
C         4.45241030391423   11.37084376327545    9.26057756695942
H         4.33406364412065   12.30449625201638    8.73049967886944
C         4.09617242974462   11.28625725080940   10.59361953240716
H         3.70055679684135   12.15790408539341   11.08724435194484
C         4.23953797096815   10.09909888344230   11.29705321298943
C         5.70660612020146    7.86428498422777    8.54778124839009
H         5.47594781734801    6.96296688583359    9.12524002773853
C         5.11905797694233    7.68197909454196    7.14746171601649
H         4.03423127077690    7.73008268021596    7.17988876621207
H         5.47767474209155    8.44803417413988    6.46478441215036
H         5.41165389605574    6.71383377816394    6.74448198094169
C         7.22943886829645    8.00487116931310    8.45884184965984
H         7.67613077628678    8.05183131109434    9.44887328300605
H         7.65524191940219    7.15402858385377    7.93071721355117
H         7.49283998633110    8.91268632254056    7.92053001388514
C         3.87739510596212    9.98903500123226   12.75861714282106
H         3.46833216484080    8.98223297171958   12.91385101604982
C         2.81515512940104   10.99944132469372   13.18553830698708
H         2.47206420989318   10.75908730666295   14.18770421825555
H         3.21642509645543   12.01036288662645   13.20411519101931
H         1.96102191560515   10.96049283055891   12.51652503794481
C         5.12523740196507   10.17221610579620   13.63162607654848
H         4.84429296914427   10.14783593733793   14.68180556759415
H         5.85530806118317    9.38668673557831   13.45824331206390
H         5.59278434292784   11.13284482022863   13.42274828803611

