68
CSD_code = CUVBOM | q = 0 | S = 0 | Stoichiometry = C31H16BCl3CuF9N6O | MND = 4
Cu        4.06349577969140    3.76840030900358    4.72696533675315
Cl       13.31949083202242    1.56470693494881    6.31399755776891
Cl       13.34678755934110    4.11560627623004    2.14254214816597
Cl       13.16507480887962    6.46143749906940    6.41232070518224
C         2.27401166628410    3.70818444357668    4.68277893171227
C         5.19942401363659    1.24990783180759    6.20116627157479
C         6.42786226072028    0.68711870497063    6.54956846672406
H         6.59890760295441   -0.22594603154289    7.07996128002185
C         7.36935263995417    1.56441979193846    6.02659133510740
C         5.23046336166595    3.83559007022372    1.82251438877114
C         6.46443626513965    3.90192593727341    1.17442251229572
H         6.64673900328943    3.91504294518195    0.12044519750252
C         7.39178469043517    3.97648000945937    2.20598856930431
C         5.04039245235895    6.32616905625630    6.24584115243047
C         6.23091934421938    6.93816334280360    6.63997917216597
H         6.34438422170135    7.85571784422665    7.17802816269087
C         7.22484757577107    6.07249092976858    6.20148766790702
C         3.83179024104624    0.73715554167112    6.49199194200830
C         8.82856480017218    1.49940689622817    6.08134693410523
C         9.47164447771410    1.34132205526555    7.30622645447337
H         8.88553803270229    1.22998236554706    8.20603572238098
C        10.85177409859632    1.34888880800136    7.38187926888983
H        11.34863861296334    1.23731021352233    8.33268479368223
C        11.59752638124989    1.51033651950958    6.22343515172428
C        10.97293892751963    1.63127634579027    4.99070587250062
H        11.56160459020410    1.73868067651754    4.09382431076384
C         9.59387751025929    1.62133259224183    4.92339506640180
H         9.10676035335407    1.70554832817302    3.96470080034484
C         3.87129098330393    3.74907622365484    1.21992823628616
C         8.84972628008603    4.05913352998038    2.13940731775478
C         9.56532747993867    3.12383111945405    1.39639527822138
H         9.03490428769970    2.36471541158960    0.84143124957154
C        10.94732195914772    3.14421558468787    1.38400709770154
H        11.50067004748061    2.41164712000014    0.81788230194954
C        11.62178907769884    4.11047082193351    2.11582766285005
C        10.92342661821372    5.07327908134595    2.82968685175868
H        11.45651304476838    5.83193572155584    3.37986831830995
C         9.54295226236479    5.04705020239807    2.83567464318286
H         8.99843126388481    5.80108279852674    3.38192559853973
C         3.64357030364241    6.79778004587112    6.45685350025984
C         8.67695158501067    6.18843300442190    6.32209647538527
C         9.31988413063309    7.34540923474139    5.88972150837385
H         8.73610243810878    8.16760534121606    5.50407111441836
C        10.69837577884586    7.43955167674912    5.92737623763302
H        11.19592180907753    8.33147698900001    5.58067210569362
C        11.44221863903676    6.37092444987935    6.40581617858798
C        10.81525223923617    5.22671161339038    6.87697524378196
H        11.40121437685054    4.40879806147481    7.26438645444374
C         9.43772724797031    5.14124142865064    6.83774792957820
H         8.94816413757970    4.25657284711941    7.21334220262043
B         7.24240978956866    3.86695458598281    4.80802298276121
H         8.41482416851319    3.90266645760324    4.83776279662342
N         6.69935953429211    2.57095891870785    5.42900688833222
N         5.39076375030877    2.38410867817674    5.53447590787154
N         6.70977383935829    3.94042616189615    3.36905341292225
N         5.40652252495080    3.85400065958696    3.14016290319895
N         6.61921579120081    5.03785206047166    5.58338765899568
N         5.30211477535439    5.18958494832756    5.60777758014571
O         1.14407272962011    3.66199250925883    4.65790377336045
F         3.86961640243517   -0.42150424963399    7.16383464738167
F         3.11361755696034    0.51356049870062    5.37861817372175
F         3.10815750183078    1.58972959480815    7.23820707219609
F         3.92106568056460    3.75144819861498   -0.11893676259466
F         3.07941350038495    4.77401562701560    1.57773396955137
F         3.21796174339015    2.62978509566232    1.57757292980541
F         3.60801885214368    7.95858475700348    7.12516744229909
F         2.90259929312282    5.92529255835704    7.16077022385090
F         2.98592447158142    6.99974439416259    5.30185971932971

