57
CSD_code = CUVHAE | q = 1 | S = 0 | Stoichiometry = C18H28CoN8O2(1+) | MND = 6
C         1.51959429795564    2.02693336290324    6.43601368891094
C         2.84995407839878    2.48157400294753    6.17538844917804
C         4.39554068778763    2.94123007240780    4.33614097899618
H         5.22740421560663    2.34161254921646    4.72727359869770
H         4.59508997630495    3.98661578871469    4.60029837197204
C         4.30742318408350    2.78779056442992    2.79332957687767
H         4.46943695071853    3.75698162281350    2.30644312683615
H         5.09380588028529    2.11018643674277    2.43644165943961
C         2.57067658737951    2.00414198722725    1.26335614349311
C         1.22319472752520    1.52662086417604    1.24461244221569
C         0.93332650759610    1.92188825585586    7.81065145522381
H        -0.11180330127823    1.63504846078059    7.71816221846094
H         0.99740558997395    2.87182477743224    8.33782078701129
H         1.44895133712496    1.16530420269694    8.40086994250661
C         3.75448033205277    2.89900523342424    7.28806060531094
H         4.79516316224692    2.90503707777605    6.97555339815065
H         3.63890077664353    2.23537273554528    8.14080822061691
H         3.48874622517411    3.90474752628223    7.61374645843874
C         3.35265075545070    2.19042634139353    0.00474889512590
H         3.15978628574915    3.18485601386112   -0.39872191270183
H         3.05555598730019    1.46247846927302   -0.74426855425775
H         4.42087862069070    2.10263948774080    0.18826565837838
C         0.48153343132847    1.17342380262510   -0.00848239462074
H        -0.54867604143699    0.94471734921836    0.25534148756278
H         0.91672989845405    0.29789455234578   -0.48888143279030
H         0.49361765033785    1.99866295869019   -0.71772781971396
C         1.44331951501845    4.91755412272375    3.52337021297302
H         2.49431499991139    5.10318822010749    3.44261201293911
C         0.41492213346137    5.81163827997135    3.49113683168357
H         0.41509353246551    6.87623319727328    3.38087277115492
C        -0.38217962115502    3.80572895520481    3.74605275296198
H        -1.07685832337073    2.99344516506922    3.87012504528184
C        -2.06728235751001    5.61680840085287    3.65420939390879
H        -2.77187647382242    4.80358719714709    3.81490164031909
H        -2.29592270247576    6.10598294776520    2.70593943765292
H        -2.17277507900826    6.34668913865436    4.45815577044215
C         1.30040140385910   -0.90572799605331    4.09497402454788
H         0.25124144163096   -0.67903029805823    4.13077026659029
C         1.92781717763034   -2.11139269096878    4.17293433125115
H         1.53347961246114   -3.09953627053556    4.28488310639323
C         3.41338082408697   -0.54066392148772    3.94907074275465
H         4.36752193641705   -0.06158881114652    3.85504259411532
C         4.30516362100473   -2.85620082239153    4.11352477967602
H         5.27624302148737   -2.37377703771482    4.02393773640820
H         4.18071414896726   -3.56192822680918    3.29089881122701
H         4.26749886514903   -3.40948295529979    5.05299886456358
N         0.81360294895732    1.71384671215290    5.36763876685677
N         3.15026114242923    2.51206939390393    4.92009084275963
N         3.00779538779461    2.27225588731046    2.44848357832237
N         0.64636683535664    1.43036028309140    2.42629500295762
N         0.93232749993971    3.66548899746875    3.68291212759060
N        -0.73117508856111    5.08954634727367    3.63367440071449
N         2.24296495370373    0.07095405361394    3.95491700793136
N         3.26527837712656   -1.86545686231459    4.07906094136149
O        -0.36579808015533    1.33039663324041    5.41352798999158
O        -0.52837804711758    1.06404570433583    2.58727430078323
Co        1.75846859085439    1.92955175910078    3.80416886456918

