78
CSD_code = CUVQOB | q = 0 | S = 0 | Stoichiometry = C32H43AuClP | MND = 2
Au        5.15734427883546   10.35409167628293    3.32330278169416
Cl        7.25908329452196   10.69482559067227    2.54983262717873
P         3.03530590926484   10.15489092788287    4.06540785324045
C         2.33900427727866    8.58534811629807    4.71001557624666
C         3.21535165364287    7.48898126306056    4.72422096161223
C         2.79233893170814    6.25590402161266    5.20932587169581
H         3.49031675348134    5.43158083634549    5.20861725051117
C         1.50726326215080    6.08887460519139    5.68168010782932
H         1.18093788043392    5.13115639035504    6.05879397696468
C         0.63894734810580    7.16253298710221    5.66285551659692
H        -0.37281820150336    7.04431227437640    6.02389566185253
C         1.02887297806705    8.41060968331406    5.18572575020245
C         4.61436491399339    7.53276162023192    4.23100600449984
C         4.88140440625220    7.21838050541409    2.89331354979699
C         6.20251626272109    7.10317684111514    2.48518400505128
H         6.42831116138163    6.86212467087705    1.45828212631803
C         7.23825491677672    7.30216022980292    3.37738065144666
H         8.26051032597184    7.21731771122140    3.04322425394738
C         6.96664924463986    7.63275350872561    4.69054458264933
H         7.78432594490484    7.80533771363891    5.37284378485316
C         5.65797997256748    7.75104682956312    5.13670463368250
C         3.75458528659447    7.01198349803568    1.90655698507061
H         2.81502530831363    7.32045773875976    2.38110281031185
C         3.63287501410058    5.53126811515637    1.54038719114496
H         4.55650701701514    5.17259670028545    1.09284509280508
H         2.82275259291451    5.38256577584087    0.82922734489200
H         3.42686506883591    4.93654570531844    2.42801648241894
C         3.94856270133938    7.86785929145583    0.65341366444472
H         4.78201084024406    7.50772378227262    0.05716152884701
H         4.15352148303666    8.90210967139114    0.92940473823213
H         3.05248228190191    7.83888824736350    0.03556592349715
C         5.37208010405446    8.13136618553765    6.57175911565682
H         4.29075235204837    8.27428397131715    6.68684082563641
C         5.80329794566071    7.01271217783882    7.52237317172988
H         5.26948083293666    6.09275134820891    7.29312404271541
H         5.58815899287382    7.28909604751919    8.55261754962582
H         6.86970065922341    6.82258869347967    7.43176375915776
C         6.06185399250908    9.44831077983186    6.93374153225628
H         7.14164762974833    9.33179012773667    6.95262116546271
H         5.73765765606603    9.78719931200485    7.91623170193654
H         5.82066647803420   10.21579565251485    6.19820768691990
C        -0.03506116177366    9.44982647847296    5.22411574026438
C        -0.92256676407529    9.56437051380107    4.14489216713247
C        -1.96272883133633   10.48063055411266    4.22720709497703
H        -2.65284690148478   10.58482707430729    3.40519002320442
C        -2.13809687995056   11.25312085920420    5.35915568110707
H        -2.95065319903153   11.96276876050711    5.40779792157652
C        -1.29376830894502   11.09473980216899    6.44084051768037
H        -1.46498895949083   11.67501978091696    7.33352697391257
C        -0.24289794493751   10.18766389188741    6.39718356886034
C        -0.80444759579934    8.65756057514413    2.93776292496530
H         0.22667362648537    8.29333209977530    2.87480504418981
C        -1.72286864515346    7.44468503449675    3.12526971480794
H        -1.41688005090683    6.85364260740986    3.98383218711842
H        -1.68609631959078    6.80991359810889    2.24265995009275
H        -2.75024933004616    7.76913426937944    3.27690462424891
C        -1.15584790406669    9.34897103600040    1.61758528505495
H        -2.22993092044633    9.48940798857940    1.52546912950023
H        -0.83233994111460    8.72854496677017    0.78447989287003
H        -0.67400444021099   10.31939390735542    1.52841855599910
C         0.60720326139280    9.95536174933001    7.62870799239628
H         1.55310203434203    9.49815429055509    7.31852135064624
C        -0.11140412060001    8.97193387130713    8.55953991587915
H        -1.09396524325224    9.35491562839033    8.82727204472524
H         0.46629839419915    8.83177219347033    9.47051003673929
H        -0.23681181879789    8.00409556712206    8.08258000786699
C         0.91816157026150   11.23754830385492    8.40615383025603
H         1.24958629881129   12.03874961366610    7.75037823710245
H         1.70518387521322   11.04202144043295    9.13135318484951
H         0.04441720336630   11.58227287200616    8.95351601010169
C         2.72416091902030   11.38964865742495    5.37179230680207
H         3.14016130732240   12.33538463172318    5.02210665560203
H         3.24462672193222   11.09496727337917    6.28176777983659
H         1.65810496081957   11.50450040959880    5.56124832914331
C         1.88116708598208   10.73210143528087    2.77581815829059
H         1.85694044463025   10.01070388655468    1.96082058352688
H         2.27929356112382   11.67403767797882    2.39599590800962
H         0.88122426350471   10.89101587459773    3.17650083000177

