82
CSD_code = CUVROC | q = 0 | S = 0 | Stoichiometry = C34H46AuP | MND = 2
Au        4.84580418731746    3.00708102775519    2.64070122978386
P         3.17464271166220    2.61497090744229    4.18502385033471
C         7.54010199607989    3.16304044480845    1.30814003875391
H         7.90617876726506    2.41591564529899    1.99892602810326
H         8.27580045246672    3.51111605326082    0.58948787283026
C         2.47728407505821    1.06943043986514    4.90544107504453
C         4.75031991990467    0.09302614837361    4.33938973198796
C         1.17969081655147    0.85775862294232    5.38928631091828
C         6.11132014109628   -0.22044213760566    2.38215050207799
H         6.21054983301205   -0.38746480150835    1.32254051183367
C         3.41169141216903    0.02396490241307    4.97965078335570
C        -0.37663365900494    2.58810159066578    6.30933943272581
C         3.07380831625624   -1.17314988787385    5.59927274911627
H         3.80435922472982   -1.96816526046364    5.63574067459381
C         5.90373341470344    0.20342153565587    5.12228547169029
C         0.02685830447255    1.78366940939432    5.23951572169827
C         3.70492464139287    3.44740752940714    5.72852828865020
H         4.53062437063915    2.89700127734316    6.17154830024613
H         2.88386224130319    3.51678545278284    6.44035819297532
H         4.05100111924104    4.44676171775778    5.46298229147619
C         1.78098581743736    3.71345304752179    3.73787729062770
H         1.22264104588090    3.28724763708040    2.90748143249542
H         2.23966441777402    4.64567626667303    3.40198935479673
H         1.10997764937920    3.91616721729326    4.56984461408501
C         1.81738830577180   -1.35248244584993    6.14389488770141
H         1.56192304148203   -2.27832454342547    6.63776906436454
C        -0.73541987348460    1.72702542606413    4.06436892794957
C         5.82971102096727    0.41245439409539    6.61894464296574
H         4.79586615017421    0.66063238254254    6.88624495214387
C         3.60780055809514   -0.26748740123305    2.10416590002697
H         2.83083037692677    0.38535149593672    2.52313549843310
C         0.39908613587119    2.61251198241943    7.60731246393383
H         1.35560431479892    2.10169137005162    7.44955842280459
C         0.87772125617305   -0.34950284418119    6.01510081969567
H        -0.12346077050623   -0.49350101868239    6.39663205993299
C        -0.35157819710369    0.79078197497304    2.93968291203713
H         0.72221035725938    0.58972961152971    3.00860961406950
C        -1.87900577526345    2.50673892953205    3.97038948001735
H        -2.48154505095214    2.47235485693886    3.07661826812244
C         7.14752597305423    0.10652220851748    4.51202737199179
H         8.04378394987895    0.19225415609591    5.10683291555580
C        -0.36709447044488    1.84725794452685    8.68980296008935
H        -0.50145777151063    0.80742434658600    8.40240220426911
H        -1.34837776211086    2.28906062460291    8.84765534774732
H         0.18114064205121    1.87609908382358    9.62910054030138
C         6.21346067123305   -0.87123007039427    7.36070072403287
H         6.19263220951182   -0.70286833814508    8.43559737221139
H         7.21506392774068   -1.18783982114987    7.07902262803236
H         5.52228723900164   -1.67668104021177    7.12677354508783
C         4.85150272006779   -0.11154766115049    2.95179819133549
C        -0.63240422838360    1.36143797305089    1.54857279244187
H        -0.24897056566667    2.37510581715903    1.45044792438917
H        -1.69807702862905    1.37445363023840    1.33396226937544
H        -0.14963903106654    0.74132441136033    0.79611824274298
C         6.74268191058282    1.55801535426229    7.07140484201937
H         6.47161337731609    1.88113925023792    8.07494764109624
H         6.66991024554218    2.40904756155819    6.39682934434750
H         7.78144626328504    1.23893232498006    7.09362566346939
C        -1.52437021632930    3.35904111453993    6.17755303472344
H        -1.84718947032992    3.98547826719745    6.99477688474824
C        -2.26888557815803    3.32306994856088    5.01543137697324
H        -3.16283658792375    3.92286876006240    4.92749005959335
C         6.29226622339908    3.60561876949984    1.34984565669795
H         6.05993392088758    4.35879295087059    0.59510255657220
C         7.25252940676336   -0.11523623904811    3.15448050418044
H         8.22483469906337   -0.20848535972814    2.69405464583765
C         3.10736340309343   -1.71383988432941    2.16881558226241
H         2.22499128931592   -1.83395773288933    1.54332821039411
H         2.84725266378112   -1.99288857600418    3.18707553464285
H         3.88009215088794   -2.39143534622329    1.81134783831724
C         3.80336305614986    0.14553997912423    0.64601375145163
H         4.29397317365605    1.11544639326039    0.58474686800609
H         2.83474190384977    0.21619277743593    0.15453729081504
H         4.39814264813081   -0.58601884557264    0.10472004427519
C        -1.08987299147385   -0.54039115964865    3.11173064023195
H        -0.84101655456424   -1.21542808555303    2.29575609632344
H        -2.16592671741738   -0.37862930256802    3.11345988594599
H        -0.80950009640622   -1.01625055142902    4.04820997781666
C         0.68077255455311    4.04202675911070    8.08011498330622
H         1.41297699603163    4.03136108868039    8.88522571516761
H        -0.22316221569233    4.51256056125477    8.45815946441123
H         1.06667500030612    4.65710700042071    7.26897121235334

