80
CSD_code = CUVRIW | q = 0 | S = 0 | Stoichiometry = C34H44AuP | MND = 2
Au        4.65286689251895    4.55962738399806    2.92217558461988
P         2.88053036238788    4.89106023659387    4.32240623774248
C         6.12589480467866    4.07008498449977    1.73775454338845
C         7.03013334334748    3.79620016750139    0.99364283320436
H         7.82616545605171    3.55295527947684    0.34534730697421
C         2.14195239319345    6.46398537553344    4.93057677811363
C         3.06189240824062    7.52090883309281    5.02132433386015
C         4.43700558952181    7.45219875587221    4.46321000725268
C         5.54045546855004    7.34095701379379    5.31355731247141
C         6.81848479542354    7.42540660239779    4.77623083041754
H         7.67778202755839    7.33401275807107    5.42223790656139
C         7.00393448833930    7.63899874159280    3.42626309988574
H         8.00178395653971    7.71278140405357    3.02164148640411
C         5.91088871541300    7.75344567625068    2.58843622192654
H         6.07228244682526    7.91484024240110    1.53571095222639
C         4.61948721249432    7.65234621973492    3.08392522661225
C         3.42734253137240    7.79435400106865    2.16324693459560
H         2.62101302736197    7.16170036347709    2.55662836216029
C         2.93934511670943    9.24615703208475    2.15823225384084
H         2.61940694437264    9.55415646668254    3.15092322488236
H         2.09894042287443    9.35741520578091    1.47589188510975
H         3.74020819508222    9.90673934817191    1.83231690511630
C         3.70342195435144    7.33619791178931    0.73167557539278
H         2.76420919417369    7.25258273416108    0.18783817197025
H         4.19413815255086    6.36486473045165    0.72503541457348
H         4.33071295532568    8.04970951865811    0.20338518900303
C         5.37330421902206    7.14232585915835    6.80372572499241
H         4.32267198629651    6.90486494905282    7.00856103778888
C         6.24604229008951    5.99192613269829    7.31774830083031
H         6.19945027820065    5.13512131256958    6.64809296295891
H         5.91677834645183    5.68280257447848    8.30834645000707
H         7.28583403803398    6.29895380846748    7.39334821444538
C         5.71940207603263    8.42986434807650    7.55667294223772
H         6.73786050760103    8.73857209305622    7.33287750551837
H         5.63280651412232    8.27175241913370    8.62981219380837
H         5.04772469784454    9.23627219338310    7.27352292879339
C         2.68059434009177    8.73466917168298    5.58123844938530
H         3.40348444284443    9.53582323046905    5.63504105369821
C         1.39463989754019    8.92038017394540    6.04844847512882
H         1.10459351695197    9.85968906991730    6.49555228680408
C         0.47191209612566    7.90421824797592    5.90228483247350
H        -0.55040263387684    8.05181779639734    6.22111864826509
C         0.81841173596707    6.67864552960743    5.33833939525283
C        -0.31773891304532    5.73745367628232    5.15804618557726
C        -0.78322012117307    4.97637612447607    6.23460798094021
C        -1.91478554619638    4.18910914812833    6.06384265217536
H        -2.28415814646549    3.59494694338545    6.88535607844629
C        -2.58463663397218    4.16832337722969    4.85693283019804
H        -3.46613805502094    3.55558094457918    4.73850190371356
C        -2.13726700095988    4.94583528281631    3.80521589428271
H        -2.68356220087743    4.93774606105871    2.87552804578356
C        -1.00788692909859    5.74034380052911    3.93725510977604
C        -0.56438940964071    6.63586046816314    2.80134044980463
H         0.50670781214585    6.83239497999688    2.91383180128742
C        -0.78568995269664    6.02317701332102    1.41734355893348
H        -0.42125139922410    4.99885090571621    1.37220879121209
H        -0.25138707353863    6.60702367120474    0.67074282034610
H        -1.83908494551535    6.02540560188544    1.14840432958916
C        -1.29908435655279    7.97686748112614    2.89434732653817
H        -2.37534601503866    7.82104475403712    2.85723312591682
H        -1.01207400266733    8.61968368603486    2.06507311265513
H        -1.05424312941097    8.48570764817369    3.82331305404662
C        -0.09669719100058    5.01796259145890    7.58164702407589
H         0.87063422038622    5.51912111578801    7.46378177093723
C        -0.93134895546351    5.83865413996856    8.56897588387453
H        -1.03946135194058    6.86340288867062    8.22291079045816
H        -0.44954212249814    5.85478788180604    9.54427389292818
H        -1.92380694567542    5.40763109748912    8.67985890236497
C         0.14375892545160    3.61516290713365    8.14852877904449
H        -0.78401314893243    3.17564037872331    8.50556102709657
H         0.83331744940175    3.66543270172312    8.98888299732234
H         0.56305175011544    2.94998510378109    7.39565850691240
C         3.25498275858384    4.08730096991890    5.92555302051759
H         2.36447781296913    4.02095506240063    6.54812853327214
H         4.02675801327029    4.64916209831408    6.44542825038360
H         3.63184131826994    3.08611805824268    5.71298400051159
C         1.52871851444687    3.79260377291461    3.76308168221870
H         0.77819497314576    3.60623265481884    4.52842338210692
H         2.01202201588303    2.85200534611978    3.48981541295241
H         1.05846077793760    4.20552376532474    2.87343511110934

