51
CSD_code = CUVXAU | q = 1 | S = 0 | Stoichiometry = C18H18CuN12P2(1+) | MND = 4
Cu        9.76440666332985    5.63745251850369    6.85848269972614
P         9.76461902911832    5.63757153219782    3.40806892924584
P         9.76437279781179    5.63751740749226    9.05702283361703
N         8.25876391087043    5.74305177468597    4.24494709413847
N         8.11117492638922    5.70238522108245    5.58167232323235
N         8.41268213169760    4.96906135975243    9.83804857870232
N         7.26807157572363    5.28637654795441    9.19997305746799
C         6.83001166971765    5.80784549415370    5.83640981110444
H         6.48672633391905    5.79741175274194    6.85337429888919
C         6.09860032753618    5.91898928369654    4.63986399025499
H         5.03883478146801    6.01733952916927    4.53286024127183
C         7.03925664120378    5.87363071826545    3.64856934562168
H         6.94822146665949    5.92244506742357    2.58153534447038
C         6.30946213707778    4.67047018132870    9.84821847668035
H         5.28604013713269    4.77366461558986    9.54606352334258
C         6.82766198863707    3.91731313883895   10.92067253009513
H         6.27848657765977    3.31523285773895   11.61401172124740
C         8.17893112259024    4.12266163448027   10.87874507784487
H         8.97510762988863    3.75121887274598   11.49243176378480
N        10.42599094272128    4.28064459066851    4.24496338649484
N        10.53472382544193    4.17317027913518    5.58171125642562
C        11.08391752074187    3.01093471573861    5.83659721678582
H        11.26438067405808    2.71884147650113    6.85359948643213
C        11.35344958038538    2.32183481168096    4.64012305276819
H        11.79805746784212    1.35481360997169    4.53327995283941
C        10.92270467408121    3.15918149782261    3.64872261783237
H        10.92614806656664    3.05589066952232    2.58169575359759
N        10.60885868977463    6.88873937067232    4.24534692501712
N        10.64727654204371    7.03690251014093    5.58208620653652
C        11.37906645645429    8.09377312638816    5.83686176766807
H        11.54152595957406    8.39631959440837    6.85383728301085
C        11.84113595310361    8.67162956326708    4.64035847660985
H        12.45616520166402    9.54026130021632    4.53339271665886
C        11.33169939177193    7.87960707658609    3.64903897327621
H        11.41963145753403    7.93400452951922    2.58200825579254
N        11.01911948214926    4.80102716269150    9.83797213320855
N        11.31575222447030    3.65056533254086    9.20049362040428
C        12.32885090713161    3.12851539438992    9.84825700680344
H        12.75058460264988    2.19021223253740    9.54649286945551
C        12.72263109488399    3.95415032398873   10.92027093200261
H        13.51885977759147    3.77961692875312   11.61335902785526
C        11.86968043461242    5.02211118606341   10.87804315847196
H        11.79397434300064    5.89776011706425   11.49121994163042
N         9.86148604372783    7.14231671396816    9.83812929926161
N        10.70868786139713    7.97490340634382    9.20016981071182
C        10.65458933588716    9.11302342085277    9.84843988390270
H        11.25577076154181    9.94770046880570    9.54639352823248
C         9.74344186560554    9.04070438893669   10.92106702926992
H         9.49676035505845    9.81725459530987   11.61455960256084
C         9.24545936504698    7.76787774552922   10.87893441270937
H         8.52568729302388    7.26407235216735   11.49260277502605

