48
CSD_code = CUVYOH | q = 0 | S = 0 | Stoichiometry = C26H15Cl2CuN2O2 | MND = 4
Cu        1.71721867479140    0.26126999196943    2.07567183022617
Cl        7.20764782784007    0.01176455983117    6.50664844135213
Cl       -1.13398289258429    4.43023558175127   -3.02318753832004
O         3.32121543601509   -0.73611916319773    2.23288632075843
O         2.11496994034102    0.97533343182139    0.37237944195327
N         1.39346920675832   -0.15709739041094    3.97195087444439
N        -0.12044274514134    0.80108499032409    2.07220925724211
C         3.71173929443425   -0.21180993019017    4.55045032762990
C         4.11947203055971   -0.58402267501004    3.22389418740631
C         5.50433405061821   -0.81872431656130    3.01178268866192
C         6.43299986656483   -0.66568631382901    4.00083676752520
C         6.02233289016362   -0.23802559373729    5.26929731991612
C         4.70067457956637   -0.00970538503279    5.53718759743396
C         2.33226863062780   -0.05686659261659    4.87327491345301
C         1.96692880007602    0.31688321743553    6.27403701691037
C         1.31119926375604    1.52110587502771    6.47139371306889
C         0.94548106916200    1.90946211146361    7.76363317898420
C         1.21367035883614    1.05921936315108    8.78991488833091
C         1.89186531826143   -0.11555958943564    8.64681773862701
C         2.26827437934591   -0.49602221504771    7.35844845010711
C         0.03446387224178   -0.21901348592809    4.20218282770354
C        -0.78840371691598    0.31373413838845    3.18457990611815
C        -2.17456780554642    0.25444231420431    3.31608685566441
C        -2.73899791486535   -0.32447896234023    4.43514516545762
C        -1.93157408722990   -0.87441412957589    5.42166872059141
C        -0.55713915931997   -0.83345045139387    5.30660582515356
C        -0.00503802238442    2.07654700024047    0.02834285770193
C         1.33689915147133    1.71542087444934   -0.32652477651771
C         1.84136245452017    2.23842671143719   -1.54966884406070
C         1.09942599133829    3.04737110375680   -2.36090892527430
C        -0.20654776077950    3.39778838670528   -1.98913865517263
C        -0.74325661072497    2.92832833862708   -0.82339648424016
C        -0.63722587779011    1.62243995157261    1.20929629256644
H         5.79320175382885   -1.12835380629339    2.01979201942423
H         7.47876717483764   -0.85141763204996    3.81103668404544
H         4.41192882671813    0.33579744573337    6.51721613357408
H         1.07686897965940    2.16532831284580    5.63583576926316
H         0.44025305029059    2.85167594525692    7.90830693946569
H         2.11764967963409   -0.75876118832614    9.48317877923269
H         2.76707668849680   -1.44259749550861    7.20949039598878
H        -2.81007650123276    0.62810877725548    2.52811396549521
H        -3.81298748566697   -0.37068992418780    4.52852876998731
H        -2.37851330695538   -1.35185501660370    6.27987604918410
H         0.06139849453925   -1.29536867127817    6.05869113827166
H         2.84920097759025    1.95960477991510   -1.81472859262143
H         1.50778799062871    3.42214371032419   -3.28681112941473
H        -1.75163872399177    3.19760188783079   -0.54614656627104
H        -1.63175409237994    2.02632112724227    1.39982146297305

