107
CSD_code = CUWBAY | q = 1 | S = 0 | Stoichiometry = C55H46N3P2Pd(1+) | MND = 4
Pd        1.70760846378775   16.68190398532010    6.91813111507677
P         0.88510698178693   14.60772653395888    6.09615958405449
P         3.31434944067694   16.72685653222131    5.30580928434618
N        -0.33669987460028   16.52594150194864    4.63439725511061
N         1.33394849321390   15.62243779684641    3.45487802995018
N         0.53199518705897   16.75499501151857    8.66037298042995
C         0.59889980306158   15.60905036325960    4.61111818387729
C         0.78381072337460   16.60992458614144    2.66306559165805
C         1.10559631840675   17.07495594658054    1.39938498921952
C         0.33739252173529   18.10979323070285    0.90597925981399
C        -0.71090592008784   18.66335995588862    1.64464058653991
C        -1.03148178708022   18.20860797291123    2.90567070566529
C        -0.26873294018267   17.16754752520453    3.42266777363775
C         2.57624495834608   14.98561746160299    3.28234596293612
C         3.60642224252294   15.35048341744312    4.12947392574514
C         4.85089454834975   14.70158453481126    4.01660726130023
C         5.04473326108861   13.73963632666281    3.06720756005773
C         4.01303530004689   13.36293958857804    2.18320419355645
C         4.19191122670406   12.35900108032388    1.21003270571293
C         3.16424437962325   11.99631610015846    0.38466929387988
C         1.91179922503134   12.62106031288855    0.49337708556407
C         1.70350841732971   13.60131523602797    1.42278594327166
C         2.74641569472948   13.99709552733064    2.28666142376476
C         4.90420098545102   16.79655669535207    6.19175989167273
C         6.08015609800262   17.33795914384318    5.68377006657929
C         7.22922087004949   17.32474111417551    6.45546080042114
C         7.21281420262158   16.77224732969779    7.72616724543218
C         6.04047695582790   16.23894719633919    8.23920134883368
C         4.88766964575453   16.25609843348133    7.47682355526808
C         3.17842636180965   18.09032840092910    4.11161158150980
C         4.01411372350074   18.17813786420786    3.00110892758220
C         3.84050264407066   19.20613259178327    2.09300718767702
C         2.82706938186138   20.13374002198224    2.27479468738559
C         1.97422118177421   20.02928593341697    3.36117154466515
C         2.14446066027154   19.00758447754157    4.27640505439185
C        -0.73070708784702   13.79052109910537    6.34064298404663
C        -0.72321324327019   12.59298294714739    7.05424020048383
C        -1.90929346489936   11.93486353949106    7.31713197990430
C        -3.11090130453359   12.47122167375782    6.88152944674235
C        -3.12229969574369   13.67118221631656    6.19018695842546
C        -1.93886686807357   14.33904677531116    5.92611091449300
C         1.84241934481625   13.18498694969544    5.48191638589574
C         1.30899904721528   12.33491858503805    4.51720070688694
C         2.02962941433080   11.23216734003311    4.10218670793607
C         3.27468705763797   10.96684764916417    4.65178829593763
C         3.80309865933501   11.80509867395024    5.61904145344568
C         3.08697750726821   12.91260259412941    6.03617657023729
C         2.17741634801832   18.56225849590498    7.51733223284564
C         3.29854907149412   19.35853206960395    7.23236967334276
C         3.42749895558959   20.60630451715403    7.77669337926489
C         2.43299241749195   21.14110963145728    8.61689048872374
C         2.55099056286636   22.43717733879413    9.16105924764006
C         1.56873298107556   22.95361273299215    9.95638500754101
C         0.42419244576916   22.19237250300074   10.23489124015662
C         0.28253146279501   20.93108424485647    9.72703201717059
C         1.28324304800983   20.35962385751508    8.90941299147842
C         1.19936409932007   19.05319725262524    8.35698873620453
C         0.02392236696470   18.14377257727352    8.62321247476982
C        -0.98571752219770   18.33022023940815    7.48353721368454
C        -0.57159710563566   15.81615780946175    8.85444504331459
C         1.47009431972731   16.57080028781967    9.77583697176969
H         1.91653121272306   16.64534184681592    0.83140157963167
H         0.54996551559365   18.50062247070544   -0.07691401644775
H        -1.28315936309774   19.46885445793862    1.21086012109794
H        -1.83791070249065   18.63680331493269    3.47855321814263
H         5.65250339372511   14.97155831690175    4.68748047485115
H         6.00202157287018   13.24711710813712    2.98405088669083
H         5.15707262666319   11.88159651994241    1.13125673279165
H         3.30775065052591   11.22579963257632   -0.35716490572518
H         1.11100561734724   12.32099148303450   -0.16506588221194
H         0.73926422366345   14.08103712383758    1.50393228873991
H         6.09357836558906   17.78381143930400    4.69975173849049
H         8.14034925728217   17.75081566582565    6.06379864306542
H         8.11270532449738   16.76618035946384    8.32146571033188
H         6.02775027400809   15.81944774832691    9.23397454452735
H         3.94674804803636   15.85953020643304    7.87900089573574
H         4.78466103870426   17.43637202583520    2.83889021974550
H         4.49366280475889   19.27930650321965    1.23651972987678
H         2.69580094521652   20.93226855554537    1.56105900420118
H         1.17304789978360   20.73996142895681    3.49225122555710
H         1.47190581285753   18.90965581551183    5.12616216943272
H         0.21639028524754   12.17412469744908    7.39202715607534
H        -1.89667621769464   11.00316048953290    7.86202938550753
H        -4.03658128150074   11.95520918358753    7.08450758984375
H        -4.05776758719846   14.09292725065144    5.85459682975609
H        -1.94738012762809   15.28120170757690    5.39605689318930
H         0.33289541754709   12.54110638082896    4.09919154961954
H         1.61963049026994   10.57601743052961    3.34960894074301
H         3.83074135222948   10.10083876774039    4.32743643327171
H         4.76942561748039   11.59393314644629    6.05133904036851
H         3.49058501996538   13.57811283946022    6.79221972516708
H         4.07789189207764   19.00260659545341    6.57044198858475
H         4.29833927759798   21.20559224796187    7.55394721274760
H         3.43493100872686   23.01331726052327    8.93017242380398
H         1.66171295926551   23.94598756699292   10.36999498113034
H        -0.35270423056967   22.61255369928082   10.85582163927993
H        -0.61618429703171   20.37724844368159    9.94992497704932
H        -0.45631074081065   18.36555681141427    9.58764771049791
H        -1.11827038378556   19.39441946349211    7.29900597568963
H        -0.60044291241231   17.86082625336824    6.56421559579089
H        -1.95806899505604   17.90618268946365    7.72218878208366
H        -0.18282006251319   14.80322586583247    8.97792345615321
H        -1.24314471036951   15.82334900194935    7.99765567079101
H        -1.14076839670218   16.07641787682919    9.75566296981472
H         1.90715931120234   15.56824971790125    9.72193475389304
H         2.26863889710214   17.31551646110677    9.74493322883419
H         0.94875170387023   16.66627279429655   10.73728880254853

