45
CSD_code = CUWCUT | q = -1 | S = 0 | Stoichiometry = C24H16AuS4(1-) | MND = 4
C         8.90757649477163   -3.46534733671019    3.20445741053009
H         8.92577951918812   -4.51198039669119    3.46543358470244
C         9.98993609338050   -2.68136504340996    3.31535280171871
C        11.27183045489961   -3.14604710126843    3.83200405447963
C        11.34517935162643   -4.27421202481805    4.68527111034112
H        10.43358862060593   -4.77625805957257    4.97237246744282
C        12.54090387504598   -4.71667238770994    5.16781040318570
H        12.57892652496061   -5.57762205960339    5.82274509317047
C        13.74880456993995   -4.06413939050077    4.83938675535279
C        14.99988675737457   -4.49510752141762    5.32037097109791
H        15.03863934408288   -5.36538121574972    5.96244957993117
C        16.14652729965914   -3.82905214734306    4.98411717818156
H        17.10400886183124   -4.16648924055640    5.35686862468817
C        16.08905682550640   -2.70010223368392    4.15203050876156
H        17.00471694040827   -2.18433403494252    3.89680095042545
C        14.88938429647320   -2.25698495198580    3.67029345590311
H        14.83886700240115   -1.38719253033450    3.03068100436233
C        13.68795210453129   -2.92253776773127    3.99704497645369
C        12.44198687115169   -2.49021988858450    3.51275730382715
H        12.40077673933628   -1.62136291910432    2.87343886413087
C         5.58196791249109    1.19987744816266    0.87605711442982
H         4.61576838045798    1.52536329538721    0.52312030852463
C         6.63180221893621    2.03054181021337    0.95464330646870
C         6.58907842241120    3.42608835861680    0.53436223023546
C         7.48967850199259    4.34285198572206    1.03411942097261
H         8.23285018747956    4.01647120664443    1.74580931865811
C         7.46732313348624    5.69156042157846    0.64115516432237
C         8.38587130794600    6.63452984526903    1.15117106794276
H         9.12682324274737    6.29952798556349    1.86316450156577
C         8.34242816647128    7.94113678892409    0.75290740973722
H         9.04998803963113    8.65705399512471    1.14834292360060
C         7.37939122229783    8.36880225894230   -0.17437261542794
H         7.35950189133296    9.40605635599010   -0.48007668745458
C         6.47529292128697    7.47945057582474   -0.68718043929355
H         5.73083829203507    7.80353468010471   -1.40267919905609
C         6.49354341185932    6.12695347622808   -0.29620955543286
C         5.58580859993019    5.17423417931838   -0.80713818740519
H         4.85146635075677    5.49675953615201   -1.53398878395222
C         5.63174022453903    3.87099358991006   -0.40995911142519
H         4.94238972534889    3.15748540850563   -0.83571293871147
S         7.35610373818773   -2.97607115748800    2.60590566169714
S         9.93656725643938   -0.98775387078948    2.80244289371939
S         5.56924098590384   -0.46823218881523    1.34670110208357
S         8.17763843834162    1.47396082061090    1.61502144184022
Au        7.75146888051083   -0.74676855394420    2.09000655364670

