59
CSD_code = CUWHIL | q = 0 | S = 0 | Stoichiometry = C28H22MoN4O4 | MND = 6
Mo       -0.62146487146170    3.16425339017623    6.15998960390499
O        -1.57569782843345    1.77037056923326    7.02978349004220
O        -0.70490254287160    4.82793842672338    5.24811620431262
O         0.41047605878620    3.66161460408867    7.34816257798484
O         0.13268638686739    2.20310718362580    5.05020340565860
N        -2.22591889240157    4.19520346299314    7.48904358229340
N        -2.40807812090707    3.01560175722788    4.68696384464390
N        -2.61470658338635    4.02917957653296    9.66567287153680
N        -2.52866818735241    3.33176492602015    2.49580862885810
C        -1.17143832077656    1.38997226381963    9.39041723671843
C        -1.67449384684583    1.14398946877619   10.66279595180477
C        -0.83598427575485    0.69473936449312   11.66825212788891
C         0.50728880626892    0.48532506046947   11.40505407807803
C         1.00511059793864    0.71385065282687   10.13284933698079
C         0.17093621419070    1.16370002883243    9.12270540049771
C        -2.09175227547774    1.91453328378829    8.29177343824965
C        -2.33322651341612    3.38171561648686    8.50842712298694
C        -2.41070268263241    5.46422515712627    7.98579044227651
C        -2.66057394885164    5.37542693586475    9.37289936673208
C        -2.89182140731873    6.49891993061176   10.14895669182653
C        -2.85989800806741    7.71978556515465    9.50306233085137
C        -2.60292098490134    7.81778659264983    8.13414312976146
C        -2.37728580786621    6.70140222371029    7.35489781189288
C         0.01121142079495    4.92092868084596    2.93332180960938
C        -0.20881327533518    5.35816263227298    1.63228979476824
C         0.81649978607195    5.32320229193696    0.70312452225516
C         2.06663743532799    4.85530724384954    1.07155892651875
C         2.29059976721525    4.43544544189482    2.37235385144659
C         1.26838911714095    4.46800742643450    3.30646678370975
C        -1.12843468362738    4.93329964774872    3.94856492613457
C        -2.03994562816766    3.76885783145862    3.68243505956718
C        -3.15774837699179    1.99484975117453    4.15117389741753
C        -3.24522316502118    2.18282569551224    2.75428171641534
C        -3.94771613589211    1.30976914000220    1.94040498306648
C        -4.55686182876918    0.23498097058394    2.55884048436113
C        -4.46548280865417    0.03479674437178    3.93772118325477
C        -3.77167471117215    0.90439841549622    4.75432950225297
H        -2.65213499292214    3.61042514948346   10.58091720923373
H        -2.30122710050060    3.70800057892333    1.58970391114965
H        -2.73015487757046    1.27999382357002   10.86470077434334
H        -1.23312822641955    0.50296165062877   12.65468423164894
H         1.16146688866638    0.13657280934298   12.19044359552541
H         2.04990831838131    0.54196728125390    9.92386663530036
H         0.54642268927557    1.34601570986516    8.12016027639256
H        -3.06401868216913    1.37502404804884    8.36995640386180
H        -3.07932593208728    6.42502149885691   11.20916119454164
H        -3.02964634943007    8.62185119809595   10.07128532519014
H        -2.57663735913120    8.79688401405409    7.67978926076070
H        -2.15560873577573    6.76721874072867    6.30168707173257
H        -1.17764767030278    5.75096122353902    1.34807616473239
H         0.64021806191943    5.66651337785470   -0.30613524517062
H         2.86578311430131    4.82667267202172    0.34562134638404
H         3.26704010359553    4.07939744167153    2.66337557554737
H         1.42952808513901    4.14399901717509    4.33039439927464
H        -1.70280002422706    5.87847780070715    3.80989239525441
H        -4.00921208418785    1.45716364625435    0.87309932365852
H        -5.11073743407888   -0.47311467338315    1.96114665448480
H        -4.94901880033588   -0.82839802051196    4.36995915998503
H        -3.67486887039019    0.74745305698926    5.81677821962107

