70
CSD_code = CUWHOS | q = 0 | S = 0 | Stoichiometry = C23H41BFeN2O2 | MND = 8
Fe        3.02373038976850    1.77970947128672    1.93709647886211
O         4.59640403228846    1.18393339568032    4.33178447524030
O         5.54610749150304    2.89393302458343    3.12932505263893
N         4.44845359220413    3.01063809325702   -0.27537740801762
N         3.22472602435738    4.40536574950724    0.78405708425913
C         3.61709045533235    3.11828122530511    0.77666357783670
C         4.58298439507678    4.22110164544752   -0.92529368504675
C         3.80423389582850    5.10785829805898   -0.25186196701789
C         5.16680293600959    1.82122837916941   -0.60730165240762
C         5.44531278560859    4.38468021298661   -2.12513226397182
C         3.53760672957751    6.55277276448359   -0.47698378735742
C         2.38130503874906    4.96216434656357    1.79279441343815
C         5.96891634543029    1.20502638726231    4.69264678649868
C         6.42827644069811    2.62302995409477    4.20940954749521
C         6.66767193649963    0.07987588708580    3.91498456458170
C         6.11953227738054    0.95290048136517    6.19164344198170
C         7.87733083850358    2.69853096293341    3.73108275182963
C         6.19323214014104    3.69915825041887    5.28052418995225
C         2.13979180901265    0.41007586284373    0.73389208139686
C         1.28706462004813    1.54597681252586    0.85752238340318
C         0.97736305884106    1.72338441413257    2.22194191969082
C         1.61768342148280    0.67262679385444    2.95329896696626
C         2.31455264261058   -0.13877980163195    2.03949232571508
C         2.54637664953093   -0.22863050423443   -0.55191771284514
C         0.79791172317404    2.36990441146881   -0.28809392558562
C         0.01364810083592    2.69986821171933    2.81428782378206
C         1.52948781024319    0.43303148580991    4.42281885210307
C         3.12645575555658   -1.33011276867548    2.41600743254259
B         4.43698657257381    2.04874439649597    3.24530533887597
H         4.35972614935962    1.26748999194186    1.91760381719877
H         3.28782697820708    2.64259191373037    3.12184302857665
H         4.87971694292238    1.08736474647793    0.14432442603939
H         4.90949502313599    1.46771646957789   -1.60633366616021
H         6.24209934264876    1.99695454389829   -0.55710520365616
H         5.14016479166649    3.69996517664615   -2.91649688285782
H         5.37805365318797    5.40107963527585   -2.50205896404351
H         6.48648157031889    4.17413010194194   -1.88106488165043
H         4.06498477446915    6.90077470738420   -1.36035139921187
H         2.47133244173816    6.73103614744200   -0.61649912362791
H         3.86858441150839    7.14179578694623    0.37825090107220
H         2.89307965868117    5.76547660801996    2.32403141892252
H         1.45729818506792    5.35327445667682    1.36429703064259
H         2.16658648704486    4.14720041962807    2.48101256938198
H         6.18233477110684   -0.86309538802257    4.15756337286344
H         7.72092821582331    0.01190182305287    4.17153051949630
H         6.55037398346134    0.25548706663233    2.84860011414652
H         5.82322787409180   -0.06999272544135    6.41223383043110
H         7.15444174476656    1.09204106424713    6.49413253033135
H         5.48209207812143    1.61919162754257    6.76388373379997
H         8.02331106841251    2.08541889713548    2.84786298783013
H         8.11102767538133    3.72805060115776    3.47073703309065
H         8.55260119401197    2.37150411511471    4.51795994418418
H         5.17076855554965    3.63642485307436    5.64389138970006
H         6.33106050091651    4.67633098500273    4.82295257129591
H         6.88791387364506    3.59268835849892    6.10903955973374
H         1.79011828950968   -0.94579180056650   -0.87858966077837
H         2.65947695738165    0.51954123709659   -1.33103203293761
H         3.48761907135787   -0.76033867196581   -0.44040645262606
H         1.59238897488929    2.51929460500682   -1.01524138698552
H         0.46230938223334    3.34554297069897    0.05080889290910
H        -0.03602684317353    1.87591822719732   -0.78974314488794
H        -0.91924310834985    2.19751726992851    3.07811417449531
H        -0.22112377831163    3.49615813154471    2.11384248182528
H         0.42127188145679    3.14603574303460    3.71946180890566
H         1.05467560507465   -0.52614815121292    4.63317657073008
H         2.53234953582223    0.42423959493346    4.84245785789961
H         0.95764993538438    1.21727973588399    4.91070658492602
H         2.49125647238121   -2.19188462091107    2.62779752356042
H         3.81678865323924   -1.59457042093671    1.61975782682563
H         3.70103711699114   -1.09227367711351    3.30723121176948

