69
CSD_code = CUWJAH | q = 0 | S = 0 | Stoichiometry = C30H28N4NiO4S2 | MND = 6
Ni       18.18055904357838    1.80422226757998    3.24314927431910
S        16.49603429682423    3.69429999503932    3.45966502786953
O        19.65848516165265    0.37282917496699    2.83354276521169
N        19.79755263845247   -2.93560286905144    1.58865613495054
N        17.62667350172780    1.71379079408552    1.46453966088209
O        17.32208999464569   -0.95266041598305   -1.79569396280334
H        18.17824348609079   -1.18509786755057   -2.17153375982667
C        18.09868882414810   -1.78760512109698    0.36149436203680
C        16.35214560392793    3.77258682671536    1.68035102373522
C        18.33744297909722   -0.60033864749407    1.10697974472055
C        15.64918988285874    4.82330264848043    1.11638653284344
H        15.15649684571687    5.53379654275449    1.76279840728945
C        19.35401192854286   -0.62018367463615    2.12025590289924
C        21.09286252834544   -1.95691331997888    3.36486349374065
H        21.69133533576462   -2.85350353612615    3.23731613006442
H        20.60069890866240   -1.99035965020102    4.33677995315648
H        21.71920912656655   -1.06764107148239    3.33893882046006
C        16.91790162430128    2.97486041773078   -0.50502719457550
H        17.43907123961263    2.28304243845471   -1.14900003938855
C        17.62413820562139    0.58351060039132    0.81074057645045
H        17.01256638660140    0.53454080176875   -0.08704050388734
C        15.58563864820906    4.96009813713854   -0.25793568428992
H        15.04199570267943    5.78251963722796   -0.69592213694972
C        20.05747878041124   -1.87735536134808    2.29198987381647
C        16.23927643234990    4.03925842546948   -1.06253333298517
H        16.22044723171877    4.15107270872435   -2.13600494687229
C        16.96687022437676    2.79774263347357    0.88499153429846
C        18.85326825300339   -2.89742146739723    0.63772906431442
H        18.70996747660557   -3.82602119653853    0.10156249095000
C        17.05236013499299   -1.84127630762356   -0.72473493950096
H        16.97444958647700   -2.87107371014940   -1.09839663082598
H        16.07186287877996   -1.54404021522122   -0.34035576040925
C        17.55615992272615    5.17892961849584    3.67298526591848
H        16.95157437945655    6.05584738416235    3.43858505473187
H        17.80810166210361    5.19342549992079    4.73386752939475
S        19.86513584146666    3.69430045156563    3.02664253475940
O        16.70261771374864    0.37281065498984    3.65276921849450
N        16.56359589968863   -2.93562550368159    4.89765178127046
N        18.73444465828490    1.71379204311342    5.02176165408430
O        19.03902181889075   -0.95263503261272    8.28200739218284
H        18.18286448464289   -1.18506934194528    8.65784027312723
C        18.26243715559973   -1.78760173387176    6.12482156163545
C        20.00900488626974    3.77257395492490    4.80595915344717
C        18.02367436650030   -0.60033977916135    5.37932994090938
C        20.71197106661337    4.82327768386984    5.36993346235398
H        21.20468266759036    5.53376370086757    4.72352714304122
C        17.00710579950162   -0.62019896181614    4.36605183790757
C        15.26828916682866   -1.95696144291438    3.12143063882192
H        14.66983734837046   -2.85356728278194    3.24896814748253
H        15.76046245816836   -1.99039007021348    2.14951855495633
H        14.64192055369015   -1.06770470237101    3.14735534454530
C        19.44321102703483    2.97485621299645    6.99133058307827
H        18.92202180216875    2.28304641529437    7.63529639435207
C        18.73697633380401    0.58351159654766    5.67556313643169
H        19.34855237754874    0.53454435276048    6.57334170268797
C        20.77551047343216    4.96007097309008    6.74425635275344
H        21.31916314961732    5.78248243827253    7.18224946899574
C        16.30366148160856   -1.87738368227942    4.19431342333567
C        20.12184745087504    4.03924203791044    7.54884574168748
H        20.14066552112553    4.15105506774132    8.62231766864778
C        19.39425575977088    2.79773838418800    5.60131092676193
C        17.50787165374657   -2.89742719162934    5.84858775751218
H        17.65117848628371   -3.82602234213694    6.38476075315160
C        19.30876075508492   -1.84125847356489    7.21105679157447
H        19.38667418975236   -2.87105236512083    7.58472770170622
H        20.28925888714306   -1.54402145075495    6.82668029309229
C        18.80501086621740    5.17893142243187    2.81332701419195
H        19.40959543076318    6.05584888514327    3.04773118084604
H        18.55306961153769    5.19343096044862    1.75244473843567

