60
CSD_code = CUWSUK | q = 0 | S = 0 | Stoichiometry = C32H21O5PW | MND = 6
C         0.24359674062637   13.24016587260977   10.97274369150220
C        -1.31582058395840   13.92703886479765   13.20732176957583
C         0.42150668295200   15.85513450905102   12.13905160989266
C         1.09982255751278   14.70922688780015   14.58947791843962
C         2.57816358709852   14.08229753427674   12.31881431277884
C         0.02639565828835   10.39825237603808   12.50324420836560
C        -1.32044624734215   10.29336400670737   12.21470273354598
H        -2.01958263120131   11.02272462792786   12.60098912571198
C        -1.75436860395929    9.24376048967792   11.41905695905295
H        -2.80247108602426    9.15014427483504   11.17717674813975
C        -0.84794407222681    8.31250121399425   10.93353383224892
H        -1.20062529888495    7.49516929767817   10.32180225359765
C         0.50316580780876    8.41426567004795   11.22016418672949
H         1.19878272557275    7.67839247933700   10.84367552575375
C         0.95486989838230    9.47057782968755   12.00074678867166
C         2.32725082333924    9.75286278326567   12.40510709925277
C         2.45328563038599   10.83455917946646   13.22171801451619
C         3.42471422236369    8.87914205267097   11.97255598436977
C         3.65179215358853    8.65187817675578   10.61736054675104
H         3.03823376576100    9.15581747498365    9.88420861464120
C         4.67450314761157    7.81337339299753   10.21280948231796
H         4.84788018212392    7.64961315674630    9.15924754216994
C         5.47314074128799    7.18514732638899   11.15371554715902
H         6.26835645758611    6.52744342317872   10.83570838998240
C         5.25124340747427    7.40489165568810   12.50359655033802
H         5.87296468156236    6.91725628058603   13.23997041487528
C         4.23533954610886    8.24768673673040   12.91287563849671
H         4.06210892409696    8.42335780167751   13.96501570220728
C         3.65418485381066   11.48324255569480   13.72027861422443
C         4.88300685439125   11.41794853959472   13.06210171822956
H         4.97689661000634   10.84149079572437   12.15475083091148
C         5.97088503784170   12.11865090037225   13.54189275986085
H         6.91056112380139   12.06435720767995   13.01096469233504
C         5.87633460680287   12.90600759744971   14.68384876338877
C         4.65061098180356   12.97638094608127   15.33723177017200
H         4.55068358818076   13.58955556697990   16.22144067483968
C         3.55793072345544   12.28388521513952   14.86031552131978
H         2.61053449806055   12.34293486628933   15.38515719758096
C         7.06519600316615   13.65027585752807   15.20646035335689
H         7.76460308422221   13.87708165256331   14.40545209447059
H         7.58618002512452   13.04385553057235   15.94874875562431
H         6.76101722420593   14.57809617756547   15.68549380544622
C         0.33466432597941   11.09232585147213   15.16466268810308
C         0.61617541786345    9.80150864524706   15.60258534754848
H         1.16995102239254    9.12647513960078   14.96414964027446
C         0.18772193835293    9.39191857460923   16.85066582756796
H         0.40825973321890    8.39130343186978   17.19262442769009
C        -0.52481165447696   10.26110603138744   17.66304582771517
H        -0.85733776515538    9.93669246295245   18.63781587611393
C        -0.81075751938030   11.54339440285548   17.22587581401003
H        -1.36728624314756   12.22047931227412   17.85693065244817
C        -0.38190712257800   11.96075339678114   15.97779841716981
H        -0.59897499544247   12.96341027926675   15.62956162025788
O         0.04015595651955   12.78724752440673    9.94501200628267
O        -2.44101333975609   13.90903189921580   13.40773167501662
O         0.29068156495290   16.92781600476733   11.76682597795744
O         1.41892783180811   15.14282403638343   15.59729973548392
O         3.67439574114550   14.19147703883791   12.02270196148889
P         0.85640531034660   11.65203652304828   13.50752049239366
W         0.63526576445024   13.99039066034204   12.78476326991731

