90
CSD_code = CUWSIW | q = 0 | S = 0 | Stoichiometry = C42H42BrCoNP3 | MND = 4
Co        5.08420521337050    1.94571827861334    5.50924886379981
Br        5.07845112665057    3.33040920979730    7.36990937300633
P         4.19777865680774    0.22632999017250    6.54938723777519
P         7.14002327958843    2.40876316013899    4.85809466335985
P         4.05766483525558    1.72055237097924    3.57997592132179
N         5.96850556950059   -0.37752352212584    3.98092089173355
C         5.71468409506557   -1.45250102788605    4.92935016557510
C         4.32764098896633   -1.33470765326982    5.55575029276274
C         7.38898747556932   -0.14186708643610    3.76225241503710
C         7.98604955629472    0.75778127648820    4.83695732818845
C         5.26284409028849   -0.56677015435407    2.71999190907219
C         4.81591298529205    0.78832875024825    2.17714163876841
C         5.15543938745317   -0.32303802378400    8.01430626000319
C         6.39461940584316    0.23801080634040    8.29234323713435
C         7.14697518908381   -0.21117674657086    9.36297917616361
C         6.66342161567456   -1.22655342317489   10.16895438897217
C         5.42333680574837   -1.78657724225682    9.90387906493029
C         4.67252854979807   -1.34031253052149    8.83313867029684
C         2.51817684053095    0.10393545293430    7.24521097919713
C         2.20730903701574    1.03073353476629    8.23976457238085
C         0.95214081293958    1.04405801989620    8.81580411023339
C        -0.00949888742735    0.13492784201143    8.40396899992152
C         0.29004598992828   -0.78068282638357    7.40998217930701
C         1.54471327063644   -0.79579953382946    6.82663833573504
C         7.66155366805515    3.13334678280047    3.25603528737883
C         6.84071421906375    4.12747038840388    2.73287271424705
C         7.13931523952875    4.73821351293077    1.52932219023776
C         8.27202470774674    4.35901065115087    0.82943425233932
C         9.10580162201822    3.38226627789790    1.34926965781884
C         8.80844427992230    2.77453856615214    2.55612833642490
C         8.24678370154768    3.36477770437704    5.95421828382093
C         8.14269384566843    4.75250780677008    5.89995534435342
C         8.88934869948429    5.54611758211855    6.74741703875256
C         9.74206140055659    4.96313736461911    7.67059078402150
C         9.83678330805522    3.58495698818905    7.74335109303400
C         9.09090069736003    2.78583867216020    6.89467548081011
C         3.62500619361574    3.32472175651017    2.81259178634000
C         3.50019119320926    4.40445181202652    3.68384224407613
C         3.14697508992528    5.65410886740439    3.21113041563153
C         2.92038998579754    5.83814475662218    1.85685155080900
C         3.04337560378641    4.76932016632380    0.98470308279485
C         3.38819511081739    3.51498339911322    1.45701588741495
C         2.34141545282214    1.09269774960045    3.67343397296712
C         1.56264896004372    1.69762650546731    4.65864628384109
C         0.23977066229859    1.34510352528216    4.83045331485474
C        -0.31971974089540    0.36237299860338    4.02930575550523
C         0.44921518266508   -0.25381529251921    3.05761371589866
C         1.77222508831163    0.11165068996826    2.87162243472972
H         5.82659414494098   -2.44151206996624    4.44746704957631
H         6.45707851544398   -1.39042076330500    5.72986825456665
H         3.55927465358847   -1.29946581165684    4.78033458034250
H         4.14237916336252   -2.19885681036936    6.19984881597184
H         7.94487967953656   -1.09579728079870    3.72230759162576
H         7.50779986763143    0.35202279922488    2.79444923503421
H         7.83438055546237    0.30230196261221    5.81816089539794
H         9.06094779863991    0.87907296362732    4.67984088881087
H         5.88721593185151   -1.10032152908017    1.98371894507428
H         4.37970253990213   -1.18166099573861    2.90147908158586
H         5.67672722848708    1.37943077530694    1.84704312348205
H         4.13630221123232    0.66522106829461    1.33206815726872
H         6.76197586838692    1.05397378509563    7.68406190141114
H         8.10613602847750    0.23973221361316    9.57279174291778
H         7.24572639771155   -1.57659218088953   11.00880032130143
H         5.03865258625349   -2.57185168918324   10.53890634082952
H         3.69964979011872   -1.77187499737467    8.63876523181386
H         2.95772180866683    1.74424929353176    8.55229091234928
H         0.72232429116457    1.76569235674800    9.58568464339380
H        -0.99189806655479    0.14180864439304    8.85357909009535
H        -0.45835633313946   -1.48845565786971    7.08235805102358
H         1.75140778050622   -1.51230232704333    6.04556043290863
H         5.95543301453611    4.41852163294534    3.28083858341093
H         6.48521633940715    5.50436320301706    1.13890638618650
H         8.50943285308824    4.82513963400265   -0.11559614748799
H         9.99732689285805    3.09274818190129    0.81098018781025
H         9.48217640084081    2.02587244713103    2.94605791188273
H         7.46183783297664    5.20585139155305    5.19253292976924
H         8.79943883130566    6.62107766350666    6.69661690985516
H        10.32252746005486    5.58132962892716    8.33932873385232
H        10.49083125369521    3.12546808401071    8.47086421735522
H         9.17190375247627    1.71196313606924    6.98014164713994
H         3.70710951633373    4.26169922756130    4.73971545668672
H         3.05714931648179    6.48396767273535    3.89641172245419
H         2.65038072523589    6.81388461762816    1.47997764479497
H         2.86754361431003    4.91247859405421   -0.07214272706716
H         3.47417656447515    2.69305418985395    0.76207776849090
H         2.01096164008057    2.44939285356541    5.29733049294645
H        -0.35188754458124    1.82664050112760    5.59457559139731
H        -1.35211761130703    0.07539939061909    4.16376946709761
H         0.01616268604106   -1.02319830274009    2.43355143096492
H         2.34670395873731   -0.37713565041847    2.09754492289875

