88
CSD_code = CUXLAK | q = 1 | S = 0 | Stoichiometry = C39H44O2P2Rh(1+) | MND = 6
Rh        7.58915613106765   17.72151623270393   10.43849793106148
P         6.50456535646207   17.54733051905191   12.46770594117540
P         6.92912760614308   19.91842719575291   10.15053465284291
O         3.06858578724004   19.94718985076394   11.37261820654783
O         3.58730859960357   19.29976220514134   13.49553744186439
C         7.83826391452105   15.53362730637781   10.47202089453094
H         7.17012945582562   15.12864018817199   11.23138762468021
C         9.02584926345141   16.09000622065890   10.89730076721596
H         9.19849523519976   16.15229528294799   11.97120287925868
C        10.27985047523373   16.14338747428481   10.05806691528041
H        11.14397086227003   16.02990879091654   10.71428839723306
H        10.28295101218977   15.29726225062081    9.37115992418724
C        10.41740300960767   17.46729952673396    9.28736037086512
H        11.03219565182103   17.31977026186908    8.39391560178590
H        10.93725523973287   18.19659140123838    9.91361137189502
C         9.09641169899667   18.05991793688695    8.87193898035215
H         9.15396521965191   19.13267932910398    8.68729331627754
C         8.04176012065331   17.36658081453487    8.31415304111099
H         7.29790337251503   17.94684177509788    7.76647338006584
C         8.08832422997534   15.89909171100934    7.95645485865102
H         9.11018830514832   15.63684798984860    7.68171928487125
H         7.46616248620869   15.73341723289796    7.07581365416098
C         7.58175619880458   14.98709091963320    9.09090535774168
H         8.05089030165966   14.00123417900818    9.01235893820582
H         6.50610431532930   14.83461226522881    8.97572784952359
C         5.21432684041711   20.54034735102230   10.46538231737343
H         5.24941647418242   21.56572311752140   10.84088567079730
H         4.67303613841100   20.54983159823605    9.51597972894671
C         4.44190550418025   19.64826622838948   11.41420567617361
H         4.59515257723149   18.59435242838709   11.11809689790124
C         4.76777644126858   19.79342553313608   12.90524673623095
H         4.87718613765299   20.86776268949253   13.14149004332090
C         5.97840324261049   19.03935708264531   13.43391746377352
H         5.74560706287525   18.71723037654509   14.45325222438325
H         6.83424359527542   19.71760418345664   13.47613060176097
C         2.50291653758896   19.67593847463507   12.65779806080717
C         1.81974521911192   20.94507305112196   13.16946296664557
H         1.07028127121305   21.26110139974138   12.45109991219091
H         1.34974251646297   20.74396976771035   14.12681802444475
H         2.54848589970685   21.74241582388743   13.29091923359526
C         1.51962928300234   18.51179925211540   12.57385237042446
H         0.66348260550057   18.80371729036006   11.97470659275443
H         2.00288764712044   17.65358001972873   12.11553870574028
H         1.19565365254798   18.24483256327546   13.57445010311820
C         7.51150236268899   16.73981205204013   13.76319465116181
C         7.37161057611554   15.38634391634401   14.05794780924162
H         6.61667821429176   14.79628934785442   13.55752385913625
C         8.18463939243476   14.79026759705134   15.00588086858920
H         8.05993777710807   13.74247885652366   15.23264670918112
C         9.15270192992097   15.53279854313094   15.66073247417158
H         9.78455980408165   15.06600889499525   16.40014611840952
C         9.30854013670735   16.87695886327881   15.36217221899314
H        10.06393591095274   17.45892931155749   15.86820021522190
C         8.49845309126503   17.47693782450213   14.41581313178381
H         8.63323604065381   18.52356301829690   14.18304085444789
C         5.00464802487888   16.51821960436782   12.43368850403775
C         4.53297944343410   16.07179815507057   11.20233139334265
H         5.06061400649763   16.36334385661175   10.29575384877525
C         3.40121243330158   15.28043133303211   11.13515570953670
H         3.03606246179033   14.93614634126381   10.17925272267368
C         2.73476641078728   14.93375980675721   12.30030849682145
H         1.85163314602572   14.31566581609404   12.25114006198702
C         3.19566214768344   15.38587503056459   13.52726113094697
H         2.66931859439638   15.12140491861346   14.43143943821184
C         4.32726934419859   16.17783542705067   13.59930028076244
H         4.68479187815749   16.52763080935351   14.55644104427250
C         7.97454883910600   20.89869744516845   11.27734835033273
C         9.01840715431718   20.23702641348307   11.92054167733036
H         9.15582230199407   19.16791502066589   11.74197295735003
C         9.86582846261071   20.92192292612651   12.77231872229921
H        10.67309820476389   20.40270292099347   13.26721265377868
C         9.67795729013045   22.27830411192655   12.98573705674478
H        10.33568637228724   22.81646588591875   13.65042127222988
C         8.65068611108565   22.94661771907192   12.33787560960475
H         8.51379273913568   24.00566090454936   12.49483982714675
C         7.80297908622587   22.26453307689869   11.48308425809671
H         7.02247564450748   22.80150197047384   10.96295495269398
C         7.20737970876385   20.72714242879785    8.53384587034299
C         8.26963214172283   21.59530700658180    8.30264880920874
H         8.95224147377595   21.84304347835101    9.10324386036287
C         8.45166592113477   22.15068765589975    7.04799948772922
H         9.27146838041094   22.83247411407658    6.88078628266645
C         7.58987616456867   21.83324114772167    6.01169722477990
H         7.73488569978526   22.26900380900876    5.03556832235772
C         6.54331394641875   20.95108065575620    6.22873919337562
H         5.87423927356012   20.69509526941356    5.42135594691483
C         6.35563581967469   20.39689020675901    7.48094496360305
H         5.53977364093563   19.70402941617971    7.64531024768423

