45
CSD_code = CUXMUF | q = 0 | S = 0 | Stoichiometry = C13H20Cl2N3O4RhS2 | MND = 6
Rh        2.29988179089714    3.41071878985023    8.16366837790272
Cl        2.04795947739586    1.22836750025242    8.82180248431234
Cl        1.55815654202740    4.20982412905014   10.14898243067826
S         2.99429094055271    2.66619382290909    6.05447251934491
S         4.30326238847268    3.18652178971766    9.15340017113479
O         4.56743048731758    5.32158229911966    6.59558793537736
O         0.75451525064693    7.32250410967953    5.11695853180647
O         5.23266851482740    2.37500701011929    8.39116662341267
O         2.27789372932980    3.47500496471538    5.07157907596067
N         2.45099995171547    5.31332614277527    7.46533793110978
N         2.85687669164196    6.57248127289950    5.66593856415025
H         3.39060627816092    6.93123594764139    4.88945642421131
N         0.44599562174005    3.62944998836617    7.35122897046004
C         3.39733867062290    5.66489772386539    6.60329489412865
C         1.51949606337357    6.69534682362497    5.80249259896170
C         1.18860301220159    5.90877046332831    7.08467931118173
C         0.16569586765285    4.83584637093432    6.84943975765404
C        -1.02312008381712    5.08457123187720    6.17608594124873
H        -1.18987225628433    6.06315139110643    5.75472614860373
C        -1.94200241149717    4.06201677701646    6.03598385891335
H        -2.86740747725804    4.22674327066807    5.50588882068066
C        -1.65643076031847    2.82575407792337    6.59784740514406
H        -2.35410256101437    2.00642436854494    6.53380656089271
C        -0.44851306575329    2.64894247151865    7.24387018676035
H        -0.18696861133163    1.70378427375666    7.70492245615596
C         0.68028738293545    6.89677026506038    8.15048208281714
H         0.48689851839565    6.36206598697702    9.07705698972856
H        -0.22702189157653    7.38141904935940    7.80142756562829
H         1.44290805076989    7.64973185950292    8.33239367028593
C         4.71683398391009    2.56381966974453    5.50149808028817
H         5.15930016740883    3.54627321991905    5.62818074310263
H         4.70427528024820    2.27406039866252    4.45760783181161
H         5.22811003236784    1.84652465112815    6.13009125184950
C         2.53795877355742    0.93729952458723    5.69904888396018
H         3.08605342971237    0.29857473121917    6.38076386884470
H         2.78597920954824    0.72928450843626    4.66475905282358
H         1.47136807766275    0.82360247910529    5.85956350218475
C         5.11172590284539    4.75444093195460    9.55292610462151
H         6.02720051067202    4.55118160504240   10.09573015692879
H         4.41199385876279    5.33545281435742   10.14271028234123
H         5.32447996680729    5.24789579445333    8.60962599683580
C         4.25704075581344    2.47926998682649   10.82711116870471
H         3.64222043139954    3.11781554397783   11.45009125954192
H         5.27970154286239    2.42339170715874   11.18108455558797
H         3.82353196459651    1.48675826126733   10.76402897192538

