52
CSD_code = CUXSAP | q = 1 | S = 0 | Stoichiometry = C20H29N2Pt(1+) | MND = 4
Pt        1.57887002148210    2.16483714972216    3.77012400013792
N         0.79900656655158    0.18044508742928    3.70268499931540
N         2.45130525385056    4.08654704062764    4.07968086203014
C         1.76800721770883    1.87269034588786    5.96884054018835
C         1.54962571994754    3.25977247392316    6.12880370702842
C         0.31590589373975    3.73203606643013    6.55785774859905
C        -0.74039581256897    2.85879560463808    6.76273315057993
C        -0.61173730280723    1.54365968355850    6.34539309189157
C         0.61569437297106    1.05622068201737    5.91530251783513
C         0.72253215177974   -0.22924115090322    5.13891154184872
C        -0.55240250128664    0.20546802000726    3.13215023367561
C         1.61454947135336   -0.77541490509954    2.94616104060407
C         2.59294396277016    4.18721063337021    5.56503949815688
C         1.52710428714727    5.12400918894869    3.60847243972914
C         3.75299698551936    4.28249881426733    3.43291621716566
C         1.79473304607777    2.26657548667664    1.76741807647386
C         0.78066085760234    2.77181495666206    0.95398267659469
C         0.97870366462603    2.81986056302041   -0.42307732071201
C         2.15877881106357    2.37700098118590   -0.98945652100395
C         3.16530145456976    1.87598755140063   -0.18247817006904
C         2.97967485231426    1.82260723792356    1.19018967936547
C        -0.52064211578455    3.26556555354518    1.52947514256104
C         3.16162385820954    1.28394621259052    5.94264304947380
H         0.18163372982257    4.79076499902621    6.72297816508823
H        -1.68023727285625    3.22002018395330    7.14637305548629
H        -1.47167719535268    0.89043999490800    6.34414359387856
H        -0.14267606258193   -0.87781505816231    5.30415568788577
H         1.62187805623540   -0.78877593607325    5.40064591956094
H        -0.50211984955125    0.52145700192520    2.09170635089441
H        -1.18137358555079    0.90187633268335    3.68722378813440
H        -1.00647626237889   -0.79029368808170    3.17417559940226
H         1.62812215386953   -0.49489781072464    1.89370086408618
H         1.20507770977112   -1.78610481026275    3.03700664461947
H         2.63947374567325   -0.77705083503686    3.31636782295184
H         2.43997975932860    5.21954603891558    5.89283631328146
H         3.60207073195595    3.88590321414367    5.85014195692489
H         0.55485748420320    5.00628679816258    4.08765318780095
H         1.40577252038393    5.04056016684402    2.52992561321876
H         1.91650511952934    6.12088391873950    3.84105962697287
H         4.44424162948353    3.49162927404110    3.72320489362707
H         4.18188504074402    5.24811306576013    3.71761314119010
H         3.63341212901715    4.25639323053861    2.35055994807672
H         0.19152755632268    3.21132516394929   -1.05057575153561
H         2.29414528159246    2.42216964739944   -2.05864770615182
H         4.09043819003077    1.52791972052185   -0.61515980631491
H         3.77747931846573    1.42724204372420    1.80996986270824
H        -0.52491022332102    3.16511141114776    2.62013285886946
H        -1.35705051889163    2.70174754145482    1.12037735131514
H        -0.67961553798086    4.31094814363444    1.27120914746476
H         3.83661997434025    1.89835326653630    6.53499285425639
H         3.58338835024801    1.19572762255664    4.93166621616683
H         3.15438731061207    0.29222607994399    6.39059459867136

