69
CSD_code = CUXWUN | q = 0 | S = 0 | Stoichiometry = C24H34N4NiO6 | MND = 6
Ni        4.06462076513330    4.36595948725314    6.28924502668839
O         6.10690229663118    4.92407538218271    6.79758675674940
O         6.60449561361312    6.30949451692473    5.12852763828178
O        11.98223784484415    6.59166296920574    8.43882174770675
C         8.23791067834666    5.92435476281039    6.79795022213648
C         8.60685005040709    5.26534457096762    7.96334910660861
C         9.85148327126063    5.47568247639422    8.52343252678910
C        10.74554187850179    6.35316940681692    7.91982848126370
C        10.38230560559738    7.01584132165657    6.75042947046183
C         9.13780797897608    6.79946726861012    6.19864705535654
C         6.87795236687461    5.70798092580314    6.18489125079920
N         3.99668039150784    5.62456740806931    4.88816837788685
C         3.16586486866727    6.76606185658960    5.28012050297032
C         3.44722796921586    7.14381505538167    6.73666107747281
N         3.17069812596545    5.97531244588248    7.56382721012298
C         3.63779580482043    6.01400869674025    8.93785870826170
C         3.49882036830693    4.62827605950772    9.57537057675332
C         3.64401438810832    5.13515655036939    3.55736209603945
H        12.10258977651051    6.07348597306605    9.24368002951329
H         7.90725926792154    4.58506747058628    8.42638772704439
H        10.13660031611110    4.96065638938111    9.43284409845202
H        11.08997370786055    7.69208763717953    6.29726235754876
H         8.83887867588773    7.30510642396941    5.29280526302947
H         5.00389818819846    5.94525099065657    4.87090256516248
H         2.11328416598727    6.47813166291237    5.18022504370934
H         3.36098255205671    7.62680571114516    4.62553052016001
H         4.50534210011839    7.39884861286350    6.84431277587301
H         2.84517940171995    8.02097340965995    7.02453939559436
H         2.16890839460369    5.78395468131023    7.55164818718951
H         3.08018862167606    6.75194939892166    9.53914637530978
H         4.69189487518234    6.30485971796389    8.92801280024560
H         3.67253839052217    4.72298717266849   10.64883169736979
H         2.48101068929951    4.26004304144951    9.42777675511777
H         2.64351251573463    4.69373460506847    3.60891885923127
H         3.61422477636682    5.98768077659117    2.86256579281106
O         2.02235007810568    3.80783487680636    5.78089333243258
C         1.25142601417522    3.02364973081739    6.39338963995421
O         1.52482603387951    2.42224183090181    7.44982910979042
C        -0.10850488978725    2.80722893616902    5.78028465893829
C        -0.47741272969987    3.46618758575793    4.61484646753178
C        -1.72194061679275    3.25564443642484    4.05460676473300
C        -2.61594518667131    2.37804081401850    4.65812041484305
O        -3.85255115253561    2.13937281148136    4.13899319951569
H        -3.97286030184347    2.65747534570228    3.33408048081162
C        -2.25276282665917    1.71546350669823    5.82759038659263
C        -1.00835692422070    1.93201572906218    6.37950909791895
H        -0.70947083857510    1.42645255337083    7.28540713631293
H        -2.96040461739780    1.03915893724917    6.28071181807708
H        -2.00700942344810    3.77058528260807    3.14513209222182
H         0.22217340823187    4.14647556116802    4.15181707415964
N         4.13258840504997    3.10733178313990    7.69030183722808
C         4.96347545120484    1.96589161263577    7.29834852417220
C         4.68212341509327    1.58811648464525    5.84180989332906
N         4.95856550774812    2.75663271341612    5.01463193305663
C         4.49142296164236    2.71790252536719    3.64061741192146
C         4.63037392225989    4.10363045708894    3.00308312495912
H         4.45658240027600    4.00890164405196    1.92963635194118
H         5.64818683842055    4.47189201693607    3.15060373907034
H         5.04904884669250    1.97997720520251    3.03933089161544
H         3.43733546486610    2.42700208728781    3.65049987752427
H         5.96034839724573    2.94803351167260    5.02677239628963
H         3.62402746433235    1.33300728596105    5.73416355452069
H         5.28423133032805    0.71099929042367    5.55393433514000
H         6.01603475543783    2.25389939097450    7.39824280412172
H         4.76841547293356    1.10514267647537    7.95294918574234
C         4.48518558410808    3.59673070669879    9.02112882111738
H         5.48569206804315    4.03814366118184    8.96962137236647
H         4.51493987529129    2.74419542070056    9.71591298025405
H         3.12538912973030    2.78658675134181    7.70753121608218

