58
CSD_code = CUXZEA | q = 0 | S = 0 | Stoichiometry = C23H30HgNPS2 | MND = 4
Hg       -1.88998038367671    3.68974874578031    9.80921969092961
P        -2.89598175419019    2.61834082883566   12.56640033462702
S        -1.85108175392403    4.32298061409266   12.45902116815261
S        -3.66752668421750    1.94006069738151   10.82978328104527
N        -3.72060514465726    5.07579740959064    8.63372466603815
C        -5.03492618846798    4.92095354724526    8.68746244783526
H        -5.42914336935574    4.57333269003323    9.63336783843586
C        -5.87330581228673    5.18447423781651    7.61752270860830
H        -6.93904523799599    5.04946465905878    7.70981240245442
C        -5.29954785301078    5.60769248941589    6.42884936852678
H        -5.91140899507262    5.80056350701361    5.55959097214039
C        -3.92853908240682    5.77606620576137    6.36915723606534
H        -3.45859026066416    6.08064609611820    5.44760329415367
C        -3.15570255388876    5.51492611246080    7.50232549994679
C        -1.69075003796319    5.70443416413259    7.50580415151803
C        -1.11757873016768    6.66451223419895    6.67055523045743
H        -1.74918565048887    7.29166383335480    6.05882599470858
C         0.25057720306016    6.85374959572113    6.64548869458931
H         0.67823876713322    7.60377306761949    5.99645091477305
C         1.06613154427434    6.08796047008227    7.45825474338153
H         2.13716545844862    6.22647212479610    7.43999238504180
C         0.50786246327455    5.14716086338678    8.31185833494546
H         1.16423152007984    4.56995935946020    8.95076111990145
C        -0.86592829656644    4.94157704370475    8.34767609622938
C        -1.80157010236284    1.29178321557799   13.28383867052113
H        -1.41357155196027    1.68906157230130   14.23048320512868
C        -2.58166874961258    0.00336073125314   13.51416780648717
H        -3.38533076076025    0.16920545686938   14.23612177767995
H        -3.03594233947800   -0.30813270876509   12.56891847344749
C        -1.65494290499784   -1.09603863995227   14.02771315144808
H        -2.22423148862916   -2.01815158153532   14.16196441504039
H        -1.25422008800515   -0.80452596656210   15.00234831023156
C        -0.50232713413582   -1.32910260480733   13.05647717621475
H        -0.90022933869683   -1.66928135115880   12.09760254210527
H         0.15740193597422   -2.10881174011393   13.44247633327881
C         0.28233164940049   -0.03739980443051   12.84888642518932
H         1.09701475601865   -0.20196761351283   12.14073337355327
H         0.72128157296484    0.28057649141599   13.79804134798872
C        -0.63778804054758    1.05894025993209   12.32426756669035
H        -1.03527472153479    0.75643462468144   11.34663582450834
H        -0.07463633892597    1.99105229988736   12.19533145631546
C        -4.31186838740707    2.84983432127198   13.73984495435069
H        -4.86402378943454    1.90211740449962   13.77043300486864
C        -3.80862540975258    3.22981934654628   15.12713221408778
H        -3.17701055560445    4.11864556421274   15.03956074118636
H        -3.20174966975616    2.42332550959221   15.54715636913314
C        -4.98303115939135    3.52324411115602   16.05723279387786
H        -5.57798077455173    2.61493368836784   16.18629029995959
H        -4.60517434494314    3.81853043967066   17.03825471671483
C        -5.86344237082947    4.62735672427313   15.48113278900314
H        -5.28012461815060    5.54682532928403   15.39559990377088
H        -6.70295083155063    4.82164498947315   16.15183910012571
C        -6.37834817554175    4.22646433161327   14.10233948451543
H        -7.00041030986852    3.33190058259165   14.19088361403486
H        -6.99567789864900    5.02490304638591   13.68568583891727
C        -5.21071038330332    3.94152299270604   13.16498153270443
H        -5.58111206031813    3.62817183781565   12.18436071115122
H        -4.61883478263601    4.85234654200822   13.02805550141774

