19
CSD_code = CUYCUU | q = 0 | S = 0 | Stoichiometry = C6H7HgN5 | MND = 2
Hg        2.48978944954918    1.37899657945433    1.86811585794212
N        -1.89442300884464   -0.64688480475846    1.35172748483459
N         0.32222938346368    0.14441309440730    1.60708081934888
N        -3.75696215943726    0.69462575991409    1.13224335566934
N        -1.69203508189311    3.05422938310711    1.35090940308340
N         0.49641264591942    2.53475621923999    1.61007282528057
C        -0.59654258919904   -0.80726996104070    1.50570228014039
C        -0.20586755359876    1.38291226641775    1.53583488928648
C        -1.56762885285252    1.68802421601002    1.37450593126057
C        -2.42660205981134    0.58415098470240    1.28221723878609
C        -0.46528963861621    3.49070815503027    1.49099436170845
C         4.67017816841695    1.08018770103411    2.17081117902856
H        -0.24980414072047   -1.83167170602302    1.55017519411302
H        -0.22282434867327    4.53693929793609    1.51235593091899
H        -4.31593084378361   -0.13620346607475    1.06399907433671
H        -4.16746000295688    1.60783751754306    1.06904212132089
H         4.84295347575345    0.45895284328673    3.04768556296782
H         5.14906063111428    2.04561430864499    2.31905974043964
H         5.11034652617045    0.59638161116919    1.30126674953354

