103
CSD_code = CUYGOT | q = 1 | S = 0 | Stoichiometry = C46H46AgN2O4S4(1+) | MND = 6
Ag        8.13785578229469    3.14728296792981    0.97581706061993
S         9.17592844176899    4.10469515901682    3.46478172825443
S        10.67025787507775    4.63609161198705    0.50746611395405
S         7.58678421040678    0.69396946554214    2.26481840668551
S         9.24704624221005    1.23320943093538   -0.78191908612249
O         6.01132067560739    3.36908178782023    3.00211365711955
O         8.04033598426348    4.48102075365702   -1.48795995068615
O        11.18789924885525   -0.76413232880770    3.17284332518201
O        11.69200831342081   -1.12458644637679   -1.55767638425892
N         5.83813197904962    3.56415566269165    0.13739746597266
N        12.36257550179632   -1.99670997830681    0.82008102132285
C         4.90879726367162    2.87940340853771    2.26639347574552
H         3.98634875960859    3.00267086983587    2.84736015988751
H         5.05921375494258    1.81599148508713    2.03273980750426
C         6.15812089771023    2.88789751039557    4.27684519888334
C         5.46759666374738    1.79905374484768    4.79393361760269
H         4.76036850348506    1.25488550245040    4.19042326601082
C         5.70254409310396    1.38081140369150    6.09401158753233
H         5.16017714976927    0.53160922933798    6.48074334017954
C         6.61861614102245    2.03965817136234    6.89255694482527
H         6.80046682078837    1.70939830322641    7.90262222157061
C         7.30112771117172    3.13113321529444    6.38437174539766
H         8.01575636868191    3.65643405644447    7.00007603722643
C         7.07322657276646    3.57136475399359    5.09005339432630
C         7.81739967919392    4.73394384842114    4.52782674760717
H         8.28361826280543    5.32506039093381    5.31574317857176
H         7.17399330113593    5.35487875853011    3.90540337713201
C         9.90120702518911    5.71015615642678    2.96481688547039
H         9.13507838399278    6.29873991998511    2.45753912577524
H        10.21302736307392    6.22585555657363    3.87520420090280
C        11.09891270625777    5.45639382036068    2.07661429706848
H        11.79757047929425    4.78061956174933    2.57033373445875
H        11.61254942694220    6.38696512487054    1.83233595105233
C        10.02640607941462    6.07560637511318   -0.44703529343785
H         9.02406934437004    6.30632369869511   -0.08821179943462
H        10.70669034542984    6.90542241798416   -0.25967727218786
C        10.01463166259517    5.70774951349877   -1.89173830626073
C        11.01308814685277    6.14973086970205   -2.74503743143466
H        11.79057092288284    6.79024060443714   -2.35644509405345
C        11.01563250355006    5.79494012199432   -4.08271148851997
H        11.79033225995569    6.15803732533508   -4.73868025259522
C        10.02290049964533    4.96250833739303   -4.56313311662913
H        10.01899090637488    4.66278560174362   -5.59970357163935
C         9.02687664710358    4.49158691990060   -3.72108323331969
H         8.29262992039362    3.81057870642970   -4.11955627125592
C         9.00653865478081    4.86629268292456   -2.38331543388792
C         6.85861164791363    3.92272822848818   -2.03282628150744
H         7.00645959390462    2.84678249726171   -2.20380971715979
H         6.60807373198598    4.41791505039329   -2.97698268450166
C         5.72195470728646    4.11746251068545   -1.06732907118004
C         4.58402608082247    4.80981261329229   -1.46588757338456
H         4.53111815171827    5.25010234147557   -2.44886585065593
C         3.52274622939349    4.92008066123636   -0.58484299870142
H         2.62981900714088    5.45980310267150   -0.85970734018065
C         3.62865353718148    4.30670216171864    0.65113099499941
H         2.81433639964668    4.34487262627164    1.35689783062315
C         4.80116958378900    3.63247808883881    0.97068842808607
C        12.50137734049740   -1.28101917730195    3.11725294151874
H        12.81004274169907   -1.65936472217712    4.09888776625553
H        13.11867255375611   -0.41253250030629    2.86255859012960
C        10.21615964463230   -1.47324602118297    3.82080399973975
C        10.34377435686854   -2.79320267842002    4.23587495710339
H        11.24463758183760   -3.34619193785865    4.02762725739237
C         9.30592105089721   -3.41961576215999    4.90469224279618
H         9.42344830921016   -4.44634930352280    5.21568740005692
C         8.13037931004838   -2.74196735107209    5.17248558594242
H         7.32632942743732   -3.23181497975066    5.69841793220720
C         7.99362339627775   -1.43111192378416    4.75399634150315
H         7.08123564936071   -0.88494193402728    4.94366199863480
C         9.02023421221696   -0.78567402539838    4.08188254993724
C         8.84078173566117    0.61605541325712    3.60742480707965
H         9.77237149704087    1.04092049910995    3.24218627974072
H         8.42670615272761    1.25343422248779    4.38771333654182
C         8.23943434697737   -0.53887060924782    1.09576637675843
H         8.39424137434415   -1.45576486903626    1.66744339249364
H         7.43758510921773   -0.69417677645154    0.37349224485322
C         9.51955587022067   -0.13021156901771    0.40900870330923
H         9.91861535833355   -0.96862076272966   -0.15978782555832
H        10.27404098428432    0.18784655107497    1.12801257187917
C        10.99352378092780    1.53719100112810   -1.29381072089039
H        11.11436146378042    2.61834571210531   -1.32750814251631
H        11.61389210276601    1.10318778097703   -0.51280290834477
C        11.28107413717422    0.92678969523162   -2.62467673307646
C        11.21196184739527    1.69434094191029   -3.77561001475640
H        10.97029048902028    2.74226881041522   -3.68593075247953
C        11.45869243671501    1.14384357256323   -5.02124827068553
H        11.40675152213446    1.75945571728233   -5.90539928059307
C        11.77188488698941   -0.19789232542207   -5.12088108333927
H        11.95706446360803   -0.64462555868653   -6.08571551477831
C        11.85551084337702   -0.98419615356685   -3.98367210415667
H        12.09848986999260   -2.02960232775532   -4.08919943320965
C        11.61933833215315   -0.43231285948743   -2.73063387481149
C        12.22776686439781   -2.42261619782301   -1.56848760383881
H        13.15462373756509   -2.45456751512108   -2.16082700046082
H        11.51451967436451   -3.13580234230808   -2.01178764988695
C        12.55988439931414   -2.85744391128305   -0.16212944002503
C        13.09925215543443   -4.12574505453154    0.04725452755633
H        13.23832213834141   -4.80318281099205   -0.78063129186929
C        13.46351215868524   -4.48170935595183    1.33177584093219
H        13.89475090614040   -5.45089662484498    1.53266349003879
C        13.27593469957872   -3.56872778886502    2.35886832635802
H        13.57374732870625   -3.80793781709413    3.36858492256065
C        12.70989361065525   -2.33729030629422    2.05496643740928

