52
CSD_code = CUYGIN | q = 1 | S = 0 | Stoichiometry = C23H23AgNO2S2(1+) | MND = 5
Ag        4.11989300028099    5.19429890677200    0.22335445485588
S         5.23319354865342    3.58167240301429   -1.41112678139321
S         6.53654965108317    5.62299030351621    1.20134667967625
O         3.11851075145711    3.26806004865668    1.54520465929581
O         3.81161716655416    7.69288466960016    0.08655462406406
N         2.16160257901542    5.84526324185569    1.30195561363685
C         2.27053788425588    3.76997301824108    2.55579523637015
H         2.94359528253700    3.99548282909584    3.39364517841397
H         1.55565903033691    3.00987580358647    2.88703597542619
C         2.59134094816724    2.43988446584125    0.57037889875871
C         1.23503215345707    2.18063272833957    0.42859663103025
H         0.51006215453313    2.67205866080079    1.05783110382927
C         0.78844982293190    1.30119853227293   -0.54399543387409
H        -0.26899189154780    1.11005871835906   -0.63682326610829
C         1.68746617492452    0.67640213945918   -1.38752952487766
H         1.34129871354846   -0.01313123803125   -2.14018203386933
C         3.03666862665766    0.95556736773485   -1.26920767939940
H         3.74215387268806    0.48920751401630   -1.94023964608360
C         3.51040302024676    1.82955722896640   -0.29989086850205
C         4.97059700179487    2.15692849293651   -0.25602838727625
H         5.57309328578990    1.33208652798012   -0.63446912507306
H         5.29580454060736    2.44739741866249    0.74146257087696
C         6.98834554280421    4.06084603251712   -1.19339288799965
H         7.58619926267468    3.22626625773369   -1.56417210565216
H         7.09912585821247    4.89641216770879   -1.88626165966107
C         7.49103827610882    4.43142451198983    0.19237924483605
H         8.49921003754428    4.83796927318731    0.09509914632029
H         7.53815428883552    3.55271786064175    0.83718868797363
C         6.59319305078468    7.21394091571664    0.25088917181721
H         7.64518635859441    7.46556131409599    0.12237673684092
H         6.11081974335296    7.07510435937034   -0.71623007995498
C         5.89331505799127    8.23189856737110    1.09707841731647
C         6.63261335879014    8.96769876337036    2.01363767154670
H         7.70221209078516    8.82675986741935    2.05266853932411
C         6.02792979186374    9.86961960526168    2.86943382882075
H         6.62218659080123   10.43815348619747    3.56615962400640
C         4.65510637888278   10.02077784808476    2.83223500890759
H         4.16335199912368   10.70468033479585    3.50596692272905
C         3.89460773039934    9.29397773265670    1.93113378379816
H         2.82424880416447    9.41991437476379    1.94176235080366
C         4.50086075825595    8.41043049975786    1.04880834536077
C         2.40860962629452    7.85142673128854   -0.01644870713941
H         2.16104575881570    7.46538876983274   -1.01358039177929
H         2.12412897285258    8.90717470725976    0.02475227130321
C         1.64718258088197    7.03871738179321    1.00982660253363
C         0.47423551123016    7.49070483760166    1.59675586731445
H         0.07544264857950    8.46136124061435    1.34854650328382
C        -0.17634986470602    6.66462789092326    2.50127261557775
H        -1.09694765683246    6.98256817145086    2.96552340313070
C         0.37401609033383    5.43101381187024    2.80847823698308
H        -0.10317448282323    4.77280553450499    3.51691723076813
C         1.56106851743251    5.05790736854505    2.18992674111263

