131
CSD_code = CUYHIN | q = 0 | S = 0 | Stoichiometry = C52H74N2O2Zr | MND = 6
Zr       -2.93274124120078   -2.05265155444363    4.42753440112633
O        -4.24579353620593   -0.82677440758161    3.74345305775796
C        -5.28411755948522   -0.26857365202858    3.12561465416459
C        -5.09251568100967    0.50232303384191    1.94462499222071
C        -6.20234553912486    0.97009241036856    1.25980612890412
C        -7.48472127831409    0.74589229915412    1.71667650119246
C        -7.66838949382334    0.08924188414929    2.91566376785826
C        -6.60019498337461   -0.40542242384573    3.64717538382036
C        -3.69144327483554    0.84238006784705    1.43535667039193
C        -2.87865391254946    1.48336976506479    2.56927909050294
C        -2.99878539918079   -0.42997841326675    0.93186194640868
C        -3.70234195471193    1.84750293735182    0.27463743271187
C        -6.86022701353289   -1.08892746287078    4.99030339486047
C        -6.60841728371631   -2.59359693947783    4.84505982278827
C        -8.30280840519908   -0.90467635433178    5.48477047342745
C        -5.94061557668474   -0.50157764948848    6.06992664142727
N        -2.13893881631582   -3.64321008071553    6.18920663265175
C        -3.38323007238011   -3.33304358229066    6.17576899892798
C        -4.41314292302444   -3.78315078502519    7.21901258865554
C        -5.20254051981546   -4.98808009629122    6.76888702898927
C        -4.90669090723797   -5.66511987403538    5.59279914008972
C        -5.62402338593646   -6.79333310122191    5.23131309887248
C        -6.65169013706819   -7.25512988240331    6.03404849023291
C        -6.96165934479977   -6.58042378300871    7.20318376178416
C        -6.24101613346467   -5.45857982694831    7.56701604770705
C        -1.41177571367100   -4.45573658330782    7.19626739601167
C        -1.98056521619201   -5.87349605030108    7.34932313213363
C         0.03009280264481   -4.57456410755542    6.68139678846326
C        -1.32614237679546   -3.73649252872390    8.55167395880484
H        -6.08276834156136    1.52696175703687    0.34606598291972
H        -8.33429322648210    1.10609045918210    1.15597386617092
H        -8.67618656020752   -0.03179026644148    3.27478312092636
H        -1.92543491326558    1.84634110579970    2.18925791549375
H        -2.68663757759474    0.76525088391774    3.36544933998542
H        -3.42628942695753    2.32813527417625    2.98343677743489
H        -3.52929231271467   -0.81690260146480    0.06331590203277
H        -2.99457794279552   -1.19573215572021    1.71279909529037
H        -1.97449191889026   -0.20823972648100    0.63576529092100
H        -2.67511241460517    2.08427562536665    0.00262790837701
H        -4.19657817941927    2.77265784994674    0.56072453755257
H        -4.18977287922912    1.43931876917213   -0.60741472681283
H        -7.29567891600099   -3.00417437544564    4.10883056576193
H        -6.79782880452394   -3.10304031264798    5.78772959377474
H        -5.57656256019675   -2.78655907929899    4.52201515532072
H        -8.56180460762487    0.14878429859442    5.55988042528170
H        -8.39933096902314   -1.34856620678516    6.47431680401324
H        -9.01714706998877   -1.40290242210861    4.83458217419194
H        -4.89741894014579   -0.76697061523549    5.87261256165371
H        -6.22778541206365   -0.88234666301006    7.05018260205269
H        -6.03911738555710    0.58264178838559    6.08568268492277
H        -5.11034490913527   -2.95672564474878    7.39965488809656
H        -3.95805127622550   -4.02466193623729    8.18451014551193
H        -4.11047421612670   -5.29851365114884    4.95494250555604
H        -5.37849182594043   -7.31675796782071    4.31837700228385
H        -7.20880221876747   -8.13587893619354    5.75152801732286
H        -7.76421250998032   -6.93240127728925    7.83493797162302
H        -6.48305454393409   -4.94040166483591    8.48531934226374
H        -2.08825595493781   -6.33718026573259    6.37084331135142
H        -2.94893330645311   -5.89098666709270    7.83866712058448
H        -1.29376527098016   -6.47634601521465    7.94088687761041
H         0.04901999869377   -4.99594397182389    5.68055054317588
H         0.61492675578829   -5.21282503687046    7.34075789602957
H         0.48693643519970   -3.58910882766084    6.65999952634754
H        -0.63939987175232   -4.27662616538206    9.20094062605813
H        -2.28196411344973   -3.66536337198877    9.06240713509389
H        -0.93912752591773   -2.73070086085503    8.40001497312908
O        -1.61969523832187   -0.82677248334633    5.11162401212184
N        -3.72653995028209   -3.64320607284023    2.66586762007472
C        -2.48224786082012   -3.33304705684481    2.67930371496097
C        -0.58137113346674   -0.26856834643519    5.72945936342179
C        -4.45370898296074   -4.45573262569374    1.65880916525607
C        -1.45233708166471   -3.78316209033921    1.63606045187509
C        -0.77297273813178    0.50233104306605    6.91044732064233
C         0.73470570450804   -0.40541606576542    5.20789696976366
C        -3.88492630318888   -5.87349511628175    1.50575814901335
C        -5.89557738098621   -4.57455061259680    2.17368142433723
C        -4.53933916761757   -3.73649232856657    0.30340065606688
C        -0.66294110847916   -4.98809090589328    2.08619085480182
H        -0.75513400077359   -2.95673923616514    1.45541274523540
H        -1.90743089835582   -4.02467779038210    0.67056513902531
C         0.33685726195116    0.97010730631279    7.59526132259707
C        -2.17404498852774    0.84238389285151    7.41971859698749
C         1.80290024704840    0.08925550094104    5.93940355107489
C         0.99473711982030   -1.08892842320623    3.86477244988596
H        -3.77723308717868   -6.33717507920390    2.48423971321398
H        -2.91656052252129   -5.89099252331825    1.01640972876287
H        -4.57173162179112   -6.47634509651338    0.91420057456767
H        -5.91450665214584   -4.99593416653959    3.17452608206448
H        -6.48041712961841   -5.21280460292352    1.51431866309212
H        -6.35241329041240   -3.58909175308621    2.19508276505669
H        -5.22607931261625   -4.27662863971479   -0.34586640964644
H        -3.58351610321538   -3.66536335580573   -0.20733002410296
H        -4.92635574572157   -2.73070071008272    0.45505554308791
C        -0.95879552728268   -5.66512858406444    3.26227903055890
C         0.37553622908802   -5.45859239736386    1.28806566732716
C         1.61923254403228    0.74591091658243    7.13838826140744
H         0.21728041021446    1.52697925907234    8.50899994575295
C        -2.98683711670701    1.48337350753031    6.28579815651750
C        -2.86669958903683   -0.42997678026579    7.92321220468343
C        -2.16314700776505    1.84750460083385    8.58043970415768
H         2.81069686916580   -0.03177462659947    5.58028246491939
C         0.74292840372923   -2.59359726857147    4.01002519510871
C         2.43731806488032   -0.90467991863852    3.37030310824985
C         0.07512477955887   -0.50158509654631    2.78514643197649
C        -0.24146592557934   -6.79334253622344    3.62376789067328
H        -1.75501289515720   -5.29851991120171    3.90013296389663
C         1.09617642926050   -6.58043758011237    1.65190143577180
H         0.61757853248532   -4.94041578420437    0.36976277852259
H         2.46880461927204    1.10611489188297    7.69908693619982
H        -3.94005598585235    1.84634320687496    6.66582120153086
H        -3.17885361635231    0.76525484506678    5.48962779906887
H        -2.43920342640104    2.32814002599372    5.87164011946489
H        -2.33619020410924   -0.81690188526816    8.79175631798264
H        -2.87090762772075   -1.19572893258380    7.14227351032878
H        -3.89099280968888   -0.20824033012592    8.21931143198721
H        -3.19037675865226    2.08427146590880    8.85245348456863
H        -1.66891669810735    2.77266264498914    8.29435250206743
H        -1.67571062261863    1.43932115384035    9.46248917717417
H         1.43019113588797   -3.00416956119103    4.74625634067931
H         0.93233911299829   -3.10304645729805    3.06735836373555
H        -0.28892575567998   -2.78655844021305    4.33307233397874
H         2.69631317505727    0.14878038078443    3.29518442576242
H         2.53384074133779   -1.34857781664838    2.38076037829210
H         3.15165748251999   -1.40289992046945    4.02049521259882
H        -0.96807133004579   -0.76698046568771    2.98246090801464
H         0.36229645398200   -0.88235665818003    1.80489199183233
H         0.17362353285545    0.58263456564993    2.76938674212151
C         0.78620232670547   -7.25514221384244    2.82103598465504
H        -0.48700087861736   -7.31676614507029    4.53670410893380
H         1.89873088675614   -6.93241703878812    1.02014969191055
H         1.34331160083338   -8.13589216212061    3.10355877214474

