76
CSD_code = CUYZED | q = 1 | S = 0 | Stoichiometry = C32H33N4NiO4S2(1+) | MND = 6
Ni       10.07784665734085    6.51271966718005   14.35413507023402
S        10.58995861821267    8.19070552677926   16.35963137608184
S         9.90145570249767    8.48748433002090   12.78133117947655
O        10.11533322124288    5.19178378252680   15.79342591674659
C         5.76832594261018    6.92900120384606   11.73107944389226
H         4.80042492467886    6.53559620342521   11.46260820046168
O        10.04262637583337    5.55096921769548   12.44876426494589
N        11.95192009986338    6.45232435735115   14.26717981464084
N         8.24857779973630    6.60008794776748   14.45785514049477
O        15.32244103948466    5.91129134986372   11.91293934614173
H        15.52029641246153    5.07298657822450   11.48142698697576
N        11.51594840308204    5.65241575608162    9.25612428388859
H        11.25524985773245    5.45892596559883    8.29235416405893
N         8.72925384307134    4.13985083153643   18.86083354242410
C        10.91677844009078    5.73778373516172   11.57728439876992
C         8.25876083791637    7.90517738536695   12.41141230782493
C        12.06424364829024    7.20992638196203   16.58097813425363
C         6.39711031569748    7.84610289389505   10.90140879674808
H         5.92345456102999    8.17275145016865    9.98910549567898
C        12.26886170987430    6.16736022374998   11.85824921257684
C        10.58827885765459    5.50692761586505   10.19225986023997
C        12.59638798424415    6.48069898310112   15.51042944432324
C        13.18647858357927    6.30772901707181   10.79643267107480
C         6.37341809081104    6.50642469878394   12.89737672624242
H         5.88584911526344    5.76976777063551   13.51695137280840
C         9.24818838374493    5.06238138679778   16.70491757724967
C         9.56246693022469    4.27205660223624   17.87936744852623
C         7.51621090580652    6.30854641535366   15.49305174832881
H         6.45680101134165    6.55119694086155   15.45465615664748
C        12.65741948441853    7.18260720635575   17.82920712408204
H        12.21197861373585    7.74824703480768   18.63282279156856
C         7.94781900905060    5.65108925345964   16.67028638410629
C        11.37222462980170    9.67068033647292   15.58596257470188
H        12.21435213249234    9.94475439922482   16.22058772619415
H        11.73608665936345    9.39219278242447   14.59614645762127
C         7.65064515207389    8.32305572833500   11.23969307818211
H         8.16942624805962    9.01554051870663   10.59269042821714
C        14.61778075745271    6.74983890360540   11.02947813066623
H        15.13412658030948    6.82604410331144   10.06551879121697
H        14.62238794431655    7.74137935527569   11.49318718706203
C        13.74818487445422    5.72128001188400   15.74136746517965
H        14.15018712253149    5.11043091158369   14.94742492378632
C         7.62763892170561    7.00248674810180   13.27337016403865
C        12.69323959694081    6.40349267132551   13.20485709096251
H        13.76525569452655    6.54331305647944   13.33234690745372
C        12.78587790486274    6.03442253913281    9.50946718774679
H        13.44874103752688    6.11940215980853    8.66494681936643
C         7.51987878367512    4.71015674348400   18.82915896481641
H         6.90827976965541    4.53555081426689   19.70265602986564
C        13.80045693628382    6.42870345571026   18.03779052382669
H        14.25829692043456    6.40261244862264   19.01381942187636
C         9.50541241824864   10.24069957466001   13.18649934951306
H        10.38602515550961   10.81251988026318   12.89547389997729
H         8.67906543034074   10.50598858344657   12.52976081820436
C        10.90171553758354    3.62144477142999   17.95642795308507
H        10.95680544196291    3.00199426021378   18.84554321430842
H        11.68226410854573    4.38077700710485   17.98930236834805
H        11.06977831402121    3.01807942662624   17.06626384716498
C         9.21364017423987    5.08639301227731    9.83090596533233
H         9.13227633318370    4.81357157317793    8.78198930517999
H         8.51096031591061    5.89132528783512   10.05205907773050
H         8.91773555071795    4.24526675563633   10.45681837775063
C         7.07691707645124    5.47036461660105   17.77752784457774
C        14.33963892590797    5.69911415527305   16.98972110283121
H        15.22047253592292    5.09665600872776   17.14807828003121
C         9.14931268601227   10.48266576584217   14.64624039148911
H         8.45686457240896   11.32534010791757   14.69719543570506
H         8.63237588469874    9.60902917499913   15.05251776423557
C        10.36417476225498   10.80476674465815   15.51589719368112
H        10.02073108778977   11.03412426856610   16.52571612453743
H        10.86779861693956   11.69128534851889   15.12241495686937
C         5.70065717998197    6.09057497039683   17.79700528502161
H         5.22022327923230    5.87728088284996   18.75866626592454
H         5.77806485512520    7.17705790437416   17.68752064723282
O         4.88615693481524    5.65770528908013   16.72416997634131
H         4.66079977509067    4.73081922823118   16.85922830063405

