41
CSD_code = CUZGAF | q = 0 | S = 0 | Stoichiometry = C17H16N2O5Pd | MND = 4
Pd        2.00044058528167    1.55155975921070    5.01325109006630
N         2.90758213181299    1.25410730042758    6.91280902767997
N         0.77558272839121    0.05354398406875    5.82881638965568
O         3.34857835857891    2.19340265677025    1.87896720283610
O         0.27579987786845   -0.03500527667160    1.87124856019010
O         2.20040650353700   -0.33797554572515    3.01219929702257
O         0.96277974743346    4.10753301366364    4.75460935154107
O         2.88675006664174    4.60053420112014    5.81856911659237
C         1.28858027519238    1.77917887246640    3.10886252391850
C         2.63211286901979    2.40221144138778    2.83775555335811
C         3.04341648159786    3.06617548515388    4.07946248237299
C         1.15534391459886    0.42643180320138    2.55894401540521
C         2.28448561087147   -1.64297811574182    2.46762567865102
C         2.16657714591263    3.92162953690003    4.86576252968169
C         2.12289597103165    5.45266761435036    6.65434384689783
C         3.85456364605670    2.00486319616799    7.46285303631814
C         4.31651641732638    1.79177679358398    8.75191455623287
C         3.76169877790670    0.75911655064752    9.49321578656750
C         2.76998493423036   -0.01849810041934    8.92206667232624
C         2.35911051072339    0.24724668520961    7.61574493959934
C        -0.24202074843996   -0.53604676669418    5.20914625721274
C        -0.77998451290444   -1.73933388290601    5.63786857359673
C        -0.23126721611357   -2.35500001976952    6.75250525356821
C         0.80733974066875   -1.72712289847633    7.41673957090094
C         1.28837200348415   -0.50807365841841    6.94025010891950
H         0.42095931121226    2.43416754635252    3.00756037654313
H         4.10964849933666    3.26784423827519    4.19247475872879
H         4.24619362929024    2.81029329149266    6.85067676026572
H         5.08807798055427    2.42179645547217    9.16378631918448
H         4.09020790836516    0.56631472627294   10.50311110293608
H         2.31146618436959   -0.80944109278710    9.49264275068295
H        -0.64648807041570   -0.02907372211952    4.34067753125838
H        -1.60269116936006   -2.18329819684933    5.10151084271774
H        -0.60756142092721   -3.30419667207601    7.10224033832460
H         1.25008300915928   -2.19057516068168    8.28327440483132
H         3.16958996299765   -2.10328110380483    2.89986694037791
H         1.38987635081472   -2.22039857828537    2.71970939260742
H         2.37567523893916   -1.59142150473037    1.38071357723428
H         2.82661500104330    5.91766795208028    7.34098290060372
H         1.37331127284362    4.87544851655534    7.20294814801925
H         1.61099049094680    6.21110867526519    6.05869243453072

