39
CSD_code = CUZHIO | q = -1 | S = 0 | Stoichiometry = C12H16CoN2O8(1-) | MND = 6
Co        8.64839963205450    8.97916570047970   10.87816090392619
N         9.50633108516157   10.48440708842560    9.96085392598371
N         6.90166847181940    9.57773380942023   10.21896662371830
O         8.50591708832717   10.15114257175744   12.35976164237671
O        10.43555038626417    8.50274935250617   11.25893902008428
O         8.73184435105362    7.94729242780570    9.29184163259067
O         7.59847205412247    7.71129713564162   11.80310380020172
O         8.75154415173422   12.28534005557010   12.93946611547592
O        12.50101941958586    8.74153726856611   10.47301732244250
O         7.71405365191679    7.65148195552981    7.33545912113610
O         5.55269190524376    7.41539588359487   12.62058762329322
C         8.48505484221380   10.99361957013676    9.01566282354909
C         7.12224149348477   10.96474346453000    9.74664442728124
C         8.80628778461949   12.36374687247334    8.41308830850523
C         5.98170163809224   11.53456491185270    8.89938231706010
C         9.89879336815936   11.46585018084638   10.98833900230163
C         8.97394222533296   11.32350042203809   12.22576958295002
C        10.71431354625160    9.92193717245356    9.35605972073110
C        11.30521131133001    8.95360661351406   10.44839957760784
C         6.48796337840325    8.65070063500105    9.15010530040189
C         7.74293075287175    8.01227065571476    8.49859963636700
C         5.99420127761276    9.42569910934449   11.35683852329312
C         6.39194969940136    8.05155138361720   12.01516151936709
H         8.44359692890536   10.27368615590399    8.18990699241089
H         7.20508148604174   11.58657764170523   10.64571062607721
H         9.85633456562375   12.41042033445712    8.13348415442026
H         8.21429067230675   12.51309535491879    7.51397788266966
H         8.58478323715317   13.17334220067505    9.10467963909787
H         6.05341676163735   12.61882456377525    8.87550902808604
H         6.01424920287788   11.16874722576725    7.87571141371895
H         5.02314134698621   11.27262997721848    9.34155307022527
H         9.91018763546477   12.49108124825366   10.61519194220666
H        10.90069321009326   11.22127178068625   11.34924274587122
H        10.46725299693638    9.31416948382564    8.48484504273497
H        11.44638163403372   10.68735987268407    9.07634768199989
H         5.94001016115506    7.81679469992600    9.59514893913960
H         5.84727183537820    9.12145522757370    8.40290637413258
H         6.16899921788703   10.20356893599807   12.10101181403992
H         4.93892559246263    9.42644105581171   11.06296418252434

