105
CSD_code = CUZRAS | q = 0 | S = 0 | Stoichiometry = C46H53FeN5 | MND = 5
C         0.63195086415482   -2.11586614477113    2.34178750949940
H        -0.09563719958306   -2.82695776437159    2.72522994999051
H         1.42823376003732   -2.65962931612158    1.83365723422577
H         0.15071069330271   -1.47033968286146    1.60821914113351
C         1.20696261076210   -1.29452448669549    3.45446863999764
C         2.34644335391583   -0.45657160235538    3.24347035794451
C         2.93504415001382   -0.08319577695429    2.03521280255928
H         2.54147711067835   -0.45213492567834    1.10182091466223
C         4.01535467438370    0.78769342798456    2.05552744793549
H         4.47962408336048    1.09096852345254    1.12928386810609
C         4.48132040385855    1.28876254640760    3.26081803999188
H         5.29306352673029    1.99765120442002    3.28756616320648
C         3.87300918297526    0.87144255545384    4.44633233871715
C         4.20020447996445    1.21262119115514    5.79046455147543
C         5.41721384813345    2.01927506157372    6.12355687629584
H         5.28825202993329    3.04027857444033    5.76344090810816
H         6.29390758675654    1.60573206942807    5.62561115842110
H         5.59091252715148    2.04163794814075    7.19661726444364
C        -0.29003793697651   -2.11572957814622    5.10934679928628
C        -0.03575772733243   -3.24361772331573    5.91166777190710
C        -1.10448400650431   -4.00647256571322    6.35037534113621
H        -0.93633039017305   -4.87921561033926    6.95852322320906
C        -2.40410480697626   -3.66520667826367    6.02288154507633
H        -3.22554028773746   -4.26975463798683    6.37739426102662
C        -2.64625942079504   -2.55128638846742    5.24762468792535
H        -3.66340543629083   -2.28965330526084    5.00010189958509
C        -1.60669143177367   -1.76159484726627    4.77512071692619
C         1.39526682857347   -3.60621961127383    6.25359661326314
H         1.90295823796884   -2.67121167905163    6.56124710172729
C         1.50272340507498   -4.61660618463969    7.39242481994814
H         0.94475040893615   -4.28247979064184    8.26230427586899
H         2.54406444254600   -4.74431413888569    7.67611625485617
H         1.12665199408194   -5.58782209867078    7.07777811206127
C         2.12339505785549   -4.17156273900298    5.02806042758064
H         1.57495321066930   -5.02312680764825    4.62934289202953
H         3.11995879850536   -4.50611224537819    5.30922072943189
H         2.22554958552543   -3.42636494781251    4.24581478082303
C        -1.93432121255468   -0.54054164688594    3.94626952903028
H        -1.00387277162707   -0.02099630959896    3.69916331867512
C        -2.65829645560007   -0.92148565126333    2.65023889493185
H        -2.11327992718149   -1.67662077102893    2.09087673053525
H        -2.77643501705215   -0.04190420460261    2.02113204815914
H        -3.64801184486443   -1.31594362892705    2.86854290622529
C        -2.81185012579692    0.42545672768238    4.74536004869099
H        -3.79615959377350    0.00099691852309    4.92837879479269
H        -2.93889820439905    1.35534424596395    4.19599901847975
H        -2.35515496430085    0.65250471877226    5.70198085219237
C         3.68120926013975    0.75155815864683    8.04839106073651
C         3.26980327954035    1.83029231631106    8.84398081492402
C         3.62822338889247    1.84127132550087   10.18488305014875
H         3.32848532329864    2.67055876552803   10.80618659037460
C         4.36854778333223    0.81434533379742   10.73666243688373
H         4.64744031837011    0.84635514351386   11.77940995030018
C         4.74636495739639   -0.25901732706610    9.95212524132559
H         5.31995486085361   -1.05974422572933   10.39252719621214
C         4.40593223911317   -0.31432856002997    8.60953035802204
C         2.45017028415947    2.96251371403779    8.27264205562049
H         2.12797506077725    2.68216791203678    7.26459404266943
C         1.20424189867123    3.21176080217981    9.12694035879616
H         0.70195360165455    2.27614040107548    9.35807671957268
H         0.50478140399039    3.84711242234150    8.58942238058332
H         1.46076482610422    3.70490943290276   10.06175676077362
C         3.27685973171970    4.24792514153499    8.18258832132931
H         2.66540456894056    5.05003353333239    7.77604877610475
H         4.14161669031391    4.11447602275592    7.53888763759735
H         3.62715903228078    4.54764162611992    9.16845817483796
C         4.82392071546693   -1.49411826518770    7.76026500512813
H         4.23178319723128   -1.47629164598131    6.83231986296894
C         4.55359070667831   -2.82482302226014    8.46174822986464
H         4.71299059055663   -3.64574511774115    7.76541211878528
H         3.52885958859795   -2.86229124754112    8.82108198086323
H         5.22405419213552   -2.97057536805896    9.30512762094550
C         6.30589145006743   -1.38772159383683    7.39179229732071
H         6.49833661649391   -0.48154525372734    6.82487875749215
H         6.60596570913661   -2.24186555944551    6.78816583739204
H         6.91843419833042   -1.36726779004630    8.29094090150282
C        -0.57478544161809    0.50935273462217    7.69582025150118
C        -0.57527566133010   -0.69829460695366    8.51768298067474
C         0.63379835271124   -1.21676356512530    8.98884627111729
H         1.55972610359338   -0.70597473430297    8.74484275581199
C         0.65136862408807   -2.33067276712987    9.80506463324543
H         1.59009129881531   -2.69052570860359   10.20406507211516
C        -0.53063597153301   -2.97540919872417   10.13479522604010
H        -0.51557015149021   -3.84328590294613   10.77827817043345
C        -1.73014015831984   -2.50307849119600    9.62645240147521
H        -2.65199264203087   -3.01766050965226    9.85696541059347
C        -1.75588813384750   -1.37541609412177    8.83061515824966
H        -2.69287456222121   -1.02008830971331    8.42808661914794
C        -1.50053815697048    1.61364369829267    7.89132638659081
C        -1.53092781528562    2.68743845196421    6.99115030629508
H        -0.86775206636184    2.67774482806355    6.13750655588162
C        -2.38751341183720    3.75099092349504    7.18428762685331
H        -2.39716895526470    4.56418063016359    6.47188565344409
C        -3.22932046192166    3.78524078007006    8.28436881448665
H        -3.90109451654648    4.61777240869760    8.43382951373868
C        -3.18745775364846    2.74591719895831    9.19995863950695
H        -3.82288438128828    2.77252745213331   10.07428693545418
C        -2.33428484883450    1.67754492080787    9.01450247267022
H        -2.29521211700450    0.89332577513957    9.75559407552435
Fe        1.87976587998941   -0.27357760256679    5.94759523320834
N         0.80394670228201   -1.32995004394053    4.70677175124195
N         2.84225085572271   -0.01700770906639    4.43011783948162
N         3.36828303588087    0.69324004797471    6.67487178140268
N         0.75467013592093    1.25343551023910    5.86948665775359
N         0.36657264953841    0.57712058493447    6.79063070490633

