59
CSD_code = CUZTIB | q = 0 | S = 0 | Stoichiometry = C23H27MnN2O6 | MND = 6
Mn        0.24863654101025    2.20551324481783    4.08878646329411
O         4.42982459030088    2.79547389415753    3.21452576722848
O         2.06028616212814    1.79766279106460    3.77328774387405
O         0.33500124521351    3.58203951308643    2.95983342155990
O         1.41810998350775    5.69879169873076    1.84078332315699
O        -1.37620994708843    2.85078127468171    5.01389027405299
O         0.55600570384367    3.58931787207959    5.66723151217627
N         0.38496022477872    0.74038836967430    5.46061997248439
N        -0.58043652496606    1.10418486841867    2.80226142165749
C         5.40132487194214    4.29677353905317    1.67622141437101
H         5.12273300219294    3.64689277380487    0.85113296343091
H         6.30055386386334    4.84892149040944    1.41605569927790
H         4.58647678868206    4.99246473732441    1.85450887563373
C         5.63483853566458    3.46781808406622    2.93021715853776
H         6.44779314588004    2.74426155394080    2.76651736859872
H         5.91432455354969    4.12088221407697    3.76965680148768
C         4.31094118887618    2.12265939452479    4.39203410421310
C         5.31771256772475    1.89684534160528    5.29961687400288
H         6.31609968649015    2.26317091581485    5.11491237899364
C         5.07109008960566    1.18573329460759    6.48305903732669
H         5.88492171784431    1.02100814924031    7.17253863758265
C         3.81926441618667    0.71001560977237    6.75844217175183
H         3.62608185167124    0.16505015770400    7.67133293302064
C         2.75525725292123    0.93678409621847    5.86546937589952
C         2.98416316759324    1.64468378221340    4.65161688776366
C         1.45514968081975    0.41009194687741    6.11044332550816
H         1.37901795784037   -0.35552181653773    6.88898485574736
C        -0.79448768323717   -0.07349815919036    5.64426080533749
H        -1.65052006667575    0.57265010523713    5.86717496964781
H        -0.65389555638883   -0.78772203403214    6.46846856928060
C        -1.05403893917095   -0.83570640933864    4.33900653459569
H        -0.13147158132787   -1.33447308885495    4.03362955617915
H        -1.82165953476202   -1.59226885364193    4.51144070384929
C        -1.53525662517374    0.08019847944632    3.21240753144112
H        -1.80834672282877   -0.54151970545128    2.34939914958545
H        -2.43591247688290    0.60792335337530    3.55384485877367
C        -0.48173520126540    1.29456321738596    1.51702227148154
H        -0.98210726900930    0.60207146739277    0.83787002149801
C         0.17421859315847    2.40054084350432    0.90090374109023
C         0.37863726171250    2.42538431238975   -0.48830405140900
H         0.08239384508824    1.56904026563201   -1.07610300657319
C         0.95834922466955    3.51280577449652   -1.08971654004222
H         1.12856714527679    3.51965645905148   -2.15581050038959
C         1.33104739908042    4.62929703099252   -0.33867627479607
H         1.77942554122627    5.46971574685092   -0.84510823206953
C         1.11585725984713    4.66206474899572    1.02427854035699
C         0.53680223926608    3.53125405641511    1.68791389660488
C         2.05640491952358    6.83643678824879    1.30287591512235
H         1.40063271264910    7.32727977330509    0.56853712998776
H         2.98827122011761    6.54635398233127    0.79628152546819
C         2.35713554968011    7.78046665923951    2.45685264846118
H         1.43181615680746    8.07766671628513    2.94208682797458
H         2.87172281629289    8.66504112537063    2.09144652486536
H         2.98082572274373    7.27647612057487    3.18989944215952
C        -0.68275027396935    3.64563300027089    5.72542790161208
C        -1.38883182096178    4.62653544248471    6.63413843013827
H        -0.74982624780840    4.87180112497485    7.47750352743135
H        -2.33401503123700    4.20972751032930    6.97138459176709
H        -1.58967489451585    5.53571535450268    6.07018222794395

