61
CSD_code = CUZWIF | q = 0 | S = 0 | Stoichiometry = C19H31N2O5PSi2W | MND = 6
W        11.93343002070937    5.76308283541030   10.75216877873445
P        11.70282497682281    4.84397301717155    8.33862708581412
Si       12.56335141620927    4.28239860559126    5.48438381126165
Si       12.83683474665370    7.23170206810229    6.79829561711201
O        12.09002109770222    6.82928497613286   13.68436447525161
O         8.82927580646286    5.55565484237043   11.16785858546417
O        12.39099152659214    2.88422086966470   11.90933596816421
O        15.06239621664167    5.96142067171387   10.76724469526343
O        11.34154554043054    8.76586322588162   10.07178629001182
N        11.13476824495367    2.29309483370825    9.12719437526333
N        13.27951515379229    2.46083833368511    8.81544368787207
C        12.11871768976357    3.16317882313476    8.77597331815863
C        11.67828916229317    1.05888463029007    9.40813362813922
C        13.01653591047177    1.15732129188941    9.19758109452452
C         9.75437730183807    2.64613673941070    9.24913295347211
H         9.52288427950336    2.97716795060129   10.26519930516906
H         9.12528907234974    1.79440511493732    8.99572624010972
H         9.55399730756086    3.47447864295452    8.56291537428057
C        10.84742213469783   -0.08328501079429    9.86584846919940
H        10.28393306735976    0.19414569178520   10.75570077809995
H        11.48005362010810   -0.93108905118156   10.10910627957960
H        10.14141109372738   -0.38837712729828    9.09293188018636
C        14.08638220490222    0.13415116976948    9.32300255207058
H        14.71161384646757    0.11818034734488    8.43130905313181
H        13.64228370181704   -0.84842762391009    9.45017146778966
H        14.72052893149774    0.33477476690064   10.18742714127592
C        14.59783751301347    3.01175243900980    8.69075234315698
H        14.91443583602972    3.05719784732144    7.64576553645573
H        15.30127957878308    2.39649485208135    9.24884330086704
H        14.60238565886149    4.01529378146674    9.11589385106788
C        12.96522264745047    5.32068298089675    7.05240131703197
H        13.98122087096241    5.13164850415474    7.39257452020297
C        10.94573990418769    4.92165515523901    4.70785098685825
H        10.18524246680235    5.06009619231050    5.46990415616485
H        10.55848002315633    4.22038962097027    3.97544351908078
H        11.08674438692429    5.87311406706887    4.20823108405987
C        14.02734224765802    4.35230936565516    4.25856770765619
H        14.18954025202277    5.35255387964236    3.87740000569252
H        13.83939306344872    3.70479232665720    3.40832469530978
H        14.95534828059160    4.02407686062209    4.71753230496758
C        12.27039491558326    2.41027213265426    5.77300880801673
H        13.12216379891540    1.90697958070878    6.21757647292337
H        12.08142788352725    1.93103641127134    4.81692880047215
H        11.40610737447627    2.22586839967111    6.40142713540794
C        13.46937856827147    7.78891581777834    5.08669952692766
H        14.50320514209286    7.50256363741534    4.92862542662294
H        13.42059520741003    8.87050114863319    5.01851840839279
H        12.88148806931998    7.38492315867331    4.27151303095789
C        11.02834738957867    7.81046991040269    6.96765650670387
H        10.48192917618642    7.68665694502684    6.03818856237225
H        10.97699493910334    8.85996700689804    7.24096454288708
H        10.50588086445689    7.24477442290233    7.73547801900198
C        14.00396873834263    8.09971201062695    8.03553696061275
H        13.82860312597219    7.78321572955356    9.05919590437808
H        13.86764255446393    9.17612289428819    7.99969806016028
H        15.04493934916443    7.89538020267020    7.80051041825427
C        12.03137755863585    6.44617070162758   12.60462662426774
C         9.95602645490189    5.60785426799686   10.96116131493537
C        12.21794602188775    3.92221214826087   11.44306249527347
C        13.91830233277323    5.91892666904973   10.67013662101843
C        11.59489373370368    7.65823829552231   10.20353812644386

