40
CSD_code = CUZWID | q = 0 | S = 0 | Stoichiometry = C18H18CoIN2 | MND = 8
I         5.16643624379273   -1.08530834283696    7.90299578253737
Co        3.55056339158938   -0.21104089014854    9.64963097228375
N         4.53891394920834   -0.93030975331827   11.07296965104542
N         2.66976086668835   -1.93339828213945    9.71695100812314
C         5.56505219204124   -0.58407154082198   11.84527974573632
C         5.82704121844895   -1.59885163263026   12.76958811516218
C         4.91476780214877   -2.61337965058309   12.53644608614074
C         4.12143837184535   -2.18210403878433   11.46523335219818
C         3.09610092214599   -2.70559501113720   10.67213235854528
C         1.67686446233097   -2.36853458523662    8.75403477881189
C         1.67212069588762   -3.88365079000966    8.51267703707099
C         0.28591069532366   -1.91623267854058    9.15309654741900
C        -0.11717117616967   -1.90583891612597   10.48116757248154
C        -1.39736270316959   -1.50423390871693   10.82171256240131
C        -2.29020346323097   -1.11637354863049    9.83797215379161
C        -1.89860068911100   -1.13451829602848    8.50982758252656
C        -0.61754875380347   -1.53048903088170    8.17028679548310
C         2.00756349811250    0.97348621568668   10.41880477497504
C         1.87459943854934    0.94744454251899    9.00489362580020
C         3.05011414781203    1.47257620503146    8.45296725347858
C         3.92118641943020    1.84156643842474    9.52196135075168
C         3.25017092061439    1.57646600196580   10.73008704384448
H         6.08847650517055    0.34708247224637   11.72447933442490
H         6.59800337777313   -1.57855940616705   13.51474458607482
H         4.82699417029715   -3.54925321361311   13.05213057050122
H         2.71652003731069   -3.70794412831418   10.82390909195917
H         1.93771483583968   -1.88817899404298    7.80178276305831
H         1.24393339146791   -4.42039130974296    9.35631222007135
H         2.68495721114387   -4.23551921885059    8.32918376260285
H         1.06497200928738   -4.09659006759115    7.63671447004394
H         0.57430588604440   -2.20410485569558   11.25704902285672
H        -1.69749612246480   -1.49488049761528   11.85941510054184
H        -3.28793675764935   -0.80179600351707   10.10473916065843
H        -2.59094470842803   -0.83608665196766    7.73660144869939
H        -0.31302481739616   -1.54004073146767    7.13282591692771
H         1.23283582295915    0.72093880195218   11.12548912490748
H         0.98734009517061    0.66172582413398    8.46354715473250
H         3.23658900757495    1.65181878604742    7.40532743991430
H         4.85411606526693    2.37279063704891    9.41190656135234
H         3.59892554014675    1.82418005009900   11.72012612006401

