22
CSD_code = CYHXCF | q = 0 | S = 0 | Stoichiometry = C10H7FeNO3 | MND = 7
Fe       11.19268998032777   -2.55367877095980    0.07998782037445
C        10.43506465878828   -1.56071843672599   -1.16632037731264
O         9.88796331655117   -0.94527807832475   -1.96079577407838
C        10.09686266141901   -3.96180681543286    0.07203627343896
O         9.38248220586618   -4.85290678241653    0.06462399970485
C        10.38711794547966   -1.55505865278863    1.29030660369237
O         9.81162968795924   -0.93393808625687    2.06025538523390
C        13.21762154470039   -2.39592667992771    0.83050254924377
C        13.24017986366189   -2.37693622259276   -0.56937944345550
C        12.60694276600331   -3.50786107852995   -1.18490640479439
C        13.02269416363498   -4.88463938692628   -0.65814901962801
C        12.96298708583276   -4.90619920649413    0.87973823241544
C        12.56527673896798   -3.53499451636376    1.40030822632285
C        14.37174181447218   -5.12517998936521   -1.12011840015266
N        15.44511481915325   -5.28200222997321   -1.48180918010786
H        13.61535088612242   -1.58294783092947    1.42666399749904
H        13.67166223205213   -1.55935818921835   -1.13459861340839
H        12.55289357389415   -3.48937295816509   -2.27259540330510
H        12.37726403122529   -5.65701169519913   -1.08954781935240
H        13.94281890440244   -5.16997046761101    1.29489889844867
H        12.25006974627031   -5.65641038496118    1.22447830187182
H        12.45537137321524   -3.52860354083724    2.48322014734913

