36
CSD_code = CYMPFE | q = 0 | S = 0 | Stoichiometry = C17H12FeN4O2 | MND = 8
C         6.26089810711700    8.79634143973432    2.82422056004224
C         8.33405107137098    5.79953781632066    3.09219841811427
C         3.45374654852566   10.39367206695424    3.09096472282448
C         4.14241396651943   11.62292922796361    3.13572476142002
C         4.32432605761899   11.97414107537753    4.50062631060993
C         3.78555251624987   10.93832092794610    5.29061635963807
C         3.27267666769175    9.94214367283093    4.41387147666130
C         5.33684135140580    7.57718129813989    2.78796793508363
C         7.07184455665277   10.91307704852911    4.20359817838081
C         6.05303823424895    9.17289438138165    5.52581972589372
C         6.15052037266445    6.45952863803053    2.07225124487199
C         7.65617991511613    6.82546835479055    2.32178441037035
C         7.62926582789166    8.16825828376026    3.11165423267597
C         6.30538353877348    9.49189576816959    1.46373812881279
C         5.80700711213420    5.15643636065798    2.60845168259184
C         5.83057189393326    6.43155327358153    0.65710695299119
C         8.38137225440416    6.96948269819253    1.07365936920905
Fe        5.51025609985454   10.13948082962458    4.18168728130956
H         3.07375330012032    9.91468236610475    2.20387665739054
H         4.34299534234765   12.26321723323654    2.29341891627656
H         4.69520864009538   12.91913721352867    4.86149286664581
H         3.66851273308003   10.95180498857872    6.36157296846303
H         2.69010987887219    9.08694828129418    4.71306527593458
H         4.40213201492027    7.76281902342392    2.26056265874720
H         5.10401508154833    7.23518055818942    3.79947648164344
H         7.75109964745315    7.93996342615961    4.17212912595345
H         8.45388015510633    8.81194152277998    2.80456076705139
H         6.92644598221148   10.38406744205291    1.51250702938661
H         6.73147152153224    8.84284105274895    0.69490835658049
H         5.31375955882475    9.78188792399146    1.12828281011986
N         5.49812756718046    4.14699401018121    3.04245417391343
N         5.53402296279442    6.41217553774142   -0.44544016243771
N         8.97345151297457    7.09387935861677    0.10515715632667
N         8.87750427528225    5.01521399778357    3.71787719460874
O         8.09670053118708   11.41191755678606    4.29666046483693
O         6.41716320229658    8.61968534481640    6.45899550705630

