31
CSD_code = CYPFEP | q = 0 | S = 0 | Stoichiometry = C14H10FeO6 | MND = 6
Fe        1.44401316887997    1.44407711637225   -0.00010214401648
O         1.35875754427940    4.29023854918006    0.74495138439192
O         1.47307236275204    0.12724228304871    2.60093100317979
C         1.40496341603782    3.19297582841032    0.45734134380285
C         1.51626929797269    0.68746639573349    1.60329190745699
C         1.20956129698057   -0.53179098221810   -0.45707696458154
C        -0.15756042672440   -1.06643830939305   -0.23168262630070
C        -0.44363493488717   -2.48034505239827   -0.50867882903630
C         0.18789221188043   -3.21305752086317   -1.67354938361116
C         0.58469156685414   -3.56873550134604   -0.28635231840184
O         2.12384303872934   -1.19679029600156   -0.88302120172249
H        -1.46244840751110   -2.77325566780944   -0.28983370559760
H         0.89914723177461   -2.67432499674350   -2.27819245394132
H        -0.44815987882102   -3.88629880100929   -2.22817421300770
H         0.22807691604719   -4.49357374979221    0.14103709661859
H         1.56538340052165   -3.27288381473217    0.04791196254738
C         3.19314666594880    1.40468092769607   -0.45650178758153
C         0.68775676323043    1.51699386821027   -1.60367493218074
C        -0.53178268949206    1.20955815447127    0.45693343161334
C        -1.06644389346006   -0.15754684245916    0.23149124448265
O         4.29012233633427    1.35931903801343   -0.74538276176057
O         0.12760833860767    1.47385813360973   -2.60135825905444
O        -1.19671478881743    2.12388010787600    0.88288380702202
C        -2.48033113016153   -0.44359390971977    0.50854474880036
C        -3.21275735524484    0.18777810333237    1.67367311074841
C        -3.56869250473248    0.58484124905554    0.28661588877374
H        -2.77332340744722   -1.46234212833402    0.28955080223465
H        -2.67381051083761    0.89888400659758    2.27831746010019
H        -3.88590697961321   -0.44832851644523    2.22832430373391
H        -4.49361931900488    0.22835719829066   -0.14067236379718
H        -3.27281933007585    1.56555512936705   -0.04754555091541

