82
CSD_code = CYPTBU | q = 0 | S = 0 | Stoichiometry = C43H32N4P2Pt | MND = 4
C        -0.64121045069077   -2.81434824806411    0.61309845237700
C         3.05042733868906   -1.65990246048253    1.66835646883676
C         2.79534592291071   -1.22986431558158    0.37091718972546
C         3.41441811185495   -0.09679636864978   -0.12387314658187
C         4.29225361604411    0.61247757580479    0.67843252543779
C         4.55704767683538    0.18414747444750    1.97057598072259
C         3.94258401976796   -0.94975096498122    2.46752210139722
C        -1.09656714101759   -3.00678829480856   -0.84566362386159
C         3.56891438524127   -3.99665595015532    3.14675141141466
C         4.78299518992351   -4.12616732229707    2.47593979187229
C         5.84363688390031   -4.78380113620879    3.06698102801924
C         5.70473863486560   -5.32288565407975    4.33572694698453
C         4.50129908028216   -5.19657143009351    5.00766799636455
C         3.43526960212860   -4.53960728795828    4.41888482730840
C        -0.12652325177827   -4.11447313174440   -1.29714906095104
C         1.14591640229849   -2.58060368716630    3.63658335307004
C         0.33901272844085   -3.54005510687451    4.24716893281569
C        -0.52373106907804   -3.17752901363812    5.26332496626843
C        -0.59541875408882   -1.85463344601361    5.66868578435375
C         0.19550439753800   -0.89764940544782    5.05547095027874
C         1.06479948314608   -1.25323153588565    4.03964139123182
C         0.90639345817918   -3.69603232388948   -2.17894789006917
C         2.60337227672065   -6.67436020158088    1.55501385969559
C         3.73956223443004   -7.27662172772352    2.07471628422640
C         3.68045961336689   -7.89582695069627    3.31172341374704
C         2.49688440391505   -7.91864460667461    4.02968842299427
C         1.36069066504783   -7.31154563243335    3.51750244897650
C         1.41586820852802   -6.68550864015396    2.28755207161184
C        -0.71774565244626   -5.36802374526077   -1.58339691664375
C         4.16780003917541   -5.54311007469916   -0.66211008982718
C         5.00195282279499   -6.61899571633726   -0.95252033431752
C         6.27349959380499   -6.38707502259901   -1.44250887886703
C         6.71022606328566   -5.08947721093329   -1.66340217160015
C         5.86988917522412   -4.01890393883727   -1.40770874569960
C         4.59958063413844   -4.24534970622280   -0.90872243714565
C        -0.46481471096955   -1.48788343587121    1.06598398351308
C         1.88546852956569   -7.07746564118068   -1.17731151805503
C         2.07778095888177   -6.86306908560580   -2.54124467737767
C         1.57272182104805   -7.76326707403989   -3.45839979820840
C         0.87008198958490   -8.87586866018256   -3.02445563282304
C         0.67648414463357   -9.08904031946618   -1.67070161043863
C         1.17758161840358   -8.19269402940317   -0.74452656170586
C        -1.29155086582111   -3.69912968271123    1.52062965299629
H        -0.96081722045922   -2.08780553200896   -1.42402412927761
H         2.10634863483460   -1.79145122834321   -0.25942513193602
H         3.21110873973587    0.22987729007685   -1.13237679939497
H         4.77381974263487    1.50060687976051    0.29727058378021
H         5.24444597420235    0.73803606954413    2.59309723753751
H         4.15157768983268   -1.29221611906744    3.47225864982251
H        -2.14213328966780   -3.32225441025431   -0.92138964447328
H         4.89666054237729   -3.69869218429422    1.48982774526190
H         6.78001522262638   -4.87364512280045    2.53580580831078
H         6.53355066099255   -5.83598151867739    4.80020477991951
H         4.38960245143819   -5.60943002138176    5.99937309994500
H         2.50504476527937   -4.43969390537057    4.95784298277269
H         0.37860209262377   -4.56622271115892    3.90662310568122
H        -1.15145986605393   -3.92407700485334    5.72578241080839
H        -1.27771636096442   -1.56790065997713    6.45500868523962
H         0.12868762129246    0.13604777677318    5.35984855145225
H         1.65845507204344   -0.49663426202257    3.54934177368456
H         4.66991973812605   -7.25004857228979    1.52702832566509
H         4.56627823579094   -8.36243704873621    3.71665160909425
H         2.45998095642120   -8.40564751105971    4.99267918278201
H         0.43626953891729   -7.32539217011581    4.07585892605219
H         0.52845255212442   -6.20647423986273    1.87235237935025
H         4.64450395613018   -7.63019964252947   -0.81197664360873
H         6.92437926008764   -7.22059326383333   -1.66271547339389
H         7.70318696380535   -4.91569834057386   -2.05075823527685
H         6.19989413343862   -3.00912341632243   -1.60144789926771
H         3.92515100916709   -3.41815794346423   -0.72460392222263
H         2.61287216222291   -5.98412001842936   -2.87655121796062
H         1.71812535967314   -7.58944808141368   -4.51416294862200
H         0.46547789202142   -9.57193305082262   -3.74364044743477
H         0.12170789639679   -9.95107279527893   -1.33199861701570
H         1.01348912684519   -8.35655678149948    0.31103438850831
N        -0.30239083521838   -0.40119939621615    1.40675314867660
N        -1.82040050673236   -4.44183807378085    2.22414475710323
N         1.75175081148591   -3.32522927588714   -2.86885463308221
N        -1.23242562250353   -6.37147913915873   -1.80650749603011
Pt        1.05576389166161   -4.01897427321246    0.42453126312812
P         2.20614084556325   -3.14896415156483    2.27388669059878
P         2.48538033309595   -5.79809301349958   -0.03246998824145

