21
CSD_code = CYSXPD | q = 0 | S = 0 | Stoichiometry = C4H9Cl2NO3PdS | MND = 4
Pd        2.69766040557867    0.14378093997130    0.99282781830550
Cl        4.27663384180694    0.95862978963778   -0.31579906463121
Cl        2.74882650300922   -1.84444565103278    0.00941621504223
S         1.11674432409815   -0.47219701099240    2.44724076971240
O        -0.23422756472119    0.03027467529263    2.28482106668933
O         3.48307541518833    3.42568943520119    4.31383333957911
O         1.57896135839647    3.02837090341767    5.42040216031842
N         2.68875111699854    2.03301828109276    2.11405206593766
C         2.40871440790645    2.89852677401445    4.39312695088087
C         1.85590029002799    1.96406693958818    3.31310088065556
C         1.83068594547096    0.52849259746095    3.84385145195365
C         1.03801174381864   -2.08127657628927    3.29314501551697
H         0.42180549659908   -1.99336157498710    4.17968004565485
H         0.82179619672767    2.24612151324338    3.07888644651420
H         0.59959641368992   -2.78710503161577    2.59578151393009
H         2.05436772475867   -2.37790993843170    3.52745194377905
H         1.94799524998067    3.61482746331034    6.10140315356390
H         1.20546861533627    0.44273701508752    4.72937348367754
H         2.84200959227896    0.15713749800916    4.02882305926018
H         2.40424868616716    2.78409658637826    1.48287223226893
H         3.66407423687311    2.22922537163584    2.37620945138928

