22
CSD_code = DABFOB | q = -1 | S = 0 | Stoichiometry = C7H10ReS4(1-) | MND = 4
Re        2.06793020759146    0.04419306371731   -6.24311683198127
S         0.28622582934162    1.27458517140478   -5.51696609648049
S         3.29162188918085    1.11839163624452   -4.64197033770620
S         1.86140292088455   -2.06915235409488   -5.91015957924941
S         2.67548852797102    0.57927605880675   -8.23479151980067
C         0.72073785669956    2.18426460017911   -3.96917294339580
H         0.39716523009968    3.20916126976771   -4.16444862229726
C         2.18512540346371    2.10792385132845   -3.54277985154908
H         2.65932702009645    3.09127749387645   -3.50553188098011
C         2.11662851007954    1.42868331707192   -2.17001141686392
H         3.07008209965887    1.00188022146782   -1.86252370176163
C         1.51812034333234    2.42589447080060   -1.17053087591640
H         1.61617287121427    2.04876374398347   -0.15110880553765
H         2.01665366997459    3.39465588002592   -1.22149549977045
C         0.03982467523603    2.50194272547983   -1.60030736183043
H        -0.26064683174012    3.51201137114950   -1.88142255593767
H        -0.62297720841720    2.16192574115913   -0.80270209246568
C        -0.02217669892846    1.54002339748981   -2.79288568830883
H        -1.02762567994455    1.21529930052614   -3.05631506001436
C         0.96470349219481    0.45025594884201   -2.38293636179194
H         0.67400655162496   -0.08594821418910   -1.48071563809188
H         1.16180932039507   -0.26270869503652   -3.18720727827445

