77
CSD_code = DABJEY | q = 0 | S = 0 | Stoichiometry = C30H38CrO7Si | MND = 9
Cr        3.87350962609398   22.79518468872238   -4.97925731816969
C         2.26182913832511   23.17089217231799   -3.50652726088011
C         2.26577622882575   24.26461793096570   -4.39440466797610
C         3.45689021710616   24.98198519895202   -4.61721876954978
C         4.61366842936755   24.64336208623479   -3.88483905784404
C         4.59328015204592   23.58085486574216   -2.95435979160172
C         5.84021427137532   23.30239110572411   -2.15223417240546
H         6.55868082778979   22.77846397173016   -2.79135938974545
H         6.29324330229445   24.25549507401215   -1.86403929551521
C         5.57128573773035   22.43672932250395   -0.92699971883960
H         6.52031112932737   22.11046772648425   -0.49864065089492
H         5.03953308235986   23.01458817514092   -0.16725070144337
C         4.72314091508156   21.24088757480025   -1.34136111744319
H         4.63453557568707   20.52756273631817   -0.52065391693751
H         5.19256556373079   20.73283154019652   -2.18715515729657
C         3.33943589034524   21.73670675649934   -1.74181896192104
H         2.74054503717759   20.91924667207198   -2.14559521505885
H         2.82235267551062   22.11601321089120   -0.85430363135830
C         3.41351883090521   22.84394096271290   -2.75667768204100
C        -1.59655844924712   23.46572088634774   -3.00657017666427
H        -2.55420727133984   23.14745031194771   -2.60696977767323
H        -1.70891815546596   23.57627261298045   -4.08047036479209
H        -1.38926547369444   24.44802852445902   -2.59376987484786
C         0.02747936882888   22.35646712994513   -0.66521605344644
H         0.57120888463208   23.26757322359282   -0.42867121502591
H         0.58040468906192   21.51908955784869   -0.25006096872248
H        -0.92459066054022   22.40393275813681   -0.14600124331191
C        -0.74522749730352   20.45069532339415   -3.12988452776995
C         0.37402970710450   19.43299777544018   -2.89620512041020
H         0.65390117929014   19.39014466082055   -1.84538199302200
H         1.24979064324744   19.68965609879499   -3.48709307802446
H         0.04635803884430   18.43899175061813   -3.19866827625052
C        -1.98541386260717   19.99517811998997   -2.35944828570068
H        -2.29373414454698   19.00367333711813   -2.68870391438146
H        -2.81603056420354   20.67751333245647   -2.52175711376668
H        -1.78417072310451   19.95109982201325   -1.29183543258354
C        -1.06999788013861   20.46139815180852   -4.62643475403263
H        -0.20341960952868   20.77702743311668   -5.20164743857633
H        -1.89472006835224   21.13663119572290   -4.84230557636087
H        -1.35222444155178   19.46255338453943   -4.95720216044100
C         1.01779468254746   24.65041427201793   -5.08671878704936
C         0.19756879613272   25.65686273381496   -4.56031927043540
C        -0.93576526250892   26.06340418345596   -5.26183081740609
H        -1.55634104881314   26.84376645607200   -4.85026490929107
C        -1.26786306111492   25.45734871536517   -6.45769307984788
H        -2.14992422086818   25.77299640311180   -6.99398971007503
C        -0.47486271062605   24.43624736499267   -6.96138638582915
H        -0.74186054158438   23.95131544145428   -7.88800843039930
C         0.66529002919898   24.04085705289651   -6.28499289760900
H         1.30149316190510   23.26006505283260   -6.68005874477940
C         0.50855537399450   26.22747170261455   -3.23029313798037
C         0.07521374695053   27.97327389363967   -1.73264507592542
H        -0.48350816090152   28.90542390209586   -1.73448539144176
H         1.14027445701224   28.16400637838258   -1.58326862770249
H        -0.27762484864577   27.31548403648880   -0.93537072989227
C         3.48654908941843   26.17784152352857   -5.53423670614676
H         2.65093569561933   26.12811797437091   -6.23599861533840
H         4.41343438751411   26.16978715311808   -6.11140261161899
C         3.42114336742324   27.48432050449832   -4.74085963481710
H         3.47105678203700   28.33566798777461   -5.41559424525910
H         4.25503449558865   27.53716827473971   -4.04510610528720
H         2.49301553619464   27.54534694267600   -4.17775597606401
C         6.73662466388744   24.92376684908265   -4.91510251024946
H         6.30679151145661   24.65807352895738   -5.88658760326050
H         7.23901989661660   24.04329499565423   -4.50543551053381
H         7.45980813701756   25.72882040268237   -5.03522468941933
C         3.04337373199778   21.30818061933292   -5.61159829041823
C         4.17183338513773   23.05880078651958   -6.74993241568887
C         5.33829595068266   21.74135233988310   -5.17599233053893
Si       -0.23102059627465   22.21312405494292   -2.55224877624342
O         1.15088444270699   22.41232891586143   -3.40034398294766
O         1.24728803932694   25.72480350938520   -2.41395818441254
O        -0.14679959437628   27.37565361677751   -3.00005277467749
O         5.74664181376622   25.42553166140420   -4.03197821244355
O         2.55610118409296   20.35979195126117   -6.06103147822695
O         4.37685380310441   23.16856587664832   -7.88657689031821
O         6.26038354391595   21.05910577854984   -5.34826263769843

