61
CSD_code = DABLIC | q = 0 | S = 0 | Stoichiometry = C19H29CoN4O8 | MND = 6
Co       -1.63900214692893    3.42423003690504    4.89185959752654
O        -3.34316274400036    2.43640431774832    2.90984773903490
O         0.23786773081627    5.60093896364792    4.70305912526516
O        -0.38334229825173    4.72805229529469    7.01363655245389
O        -3.23928454746815    1.02958994639083    4.98591326967903
O         1.75291424693588    3.23983881449103    1.74839373924709
O        -0.14747299980573    2.55782914018540    0.79854969782732
O         3.68723805111658    3.36985034180366    2.86786857142556
N        -2.39876606306072    3.28061599522461    3.17816190605245
N        -0.71548605658701    4.84955640534920    4.09312035777865
N        -1.05472941867978    3.68789482312683    6.65703386627301
N        -2.48968451552324    1.93574028791990    5.66033988885198
C        -2.04650531289148    4.21164942556885    2.34490835097756
C        -1.01136315403959    5.07543565077160    2.85690974996827
C        -1.47832687777453    2.80710074127918    7.51781727915480
C        -2.27686761162475    1.76857726856924    6.92523182256984
C        -2.64968934474042    4.37340317099157    0.98931843537017
C        -0.34907823214163    6.10996564339229    2.01555068166612
C        -1.18088252278930    2.87851955254843    8.98154276289040
C        -2.81926514883508    0.62471999711965    7.71585770075050
C         1.05510885151532    2.43683770667341    5.06323925160926
C        -0.13327860967203    2.28691704071178    4.49075694034687
C        -0.25701192902895    1.14482401730283    3.51277822911321
C         0.90843531208446    1.15531509207694    2.49423242096713
C         2.25921325561874    1.41548564188955    3.15838753728511
C         2.17995032729339    1.50833810352755    4.68997288036532
C         0.72590856553019    2.35640226736380    1.58302401331844
C         2.69438290006295    2.76502492671296    2.62060290506313
C         0.87051452701966   -0.11931436496098    1.64937223286461
O        -3.25186376172026    4.82300343547601    5.34769518986161
C        -4.65112890189707    4.58904555702894    5.26806851661518
C        -5.22253607135591    4.02849737137097    6.56170130826871
H         0.14110390021830    5.36130193606747    5.69945860201791
H        -3.37911453995304    1.48056500953557    4.04646769756745
H        -3.48931599240885    3.68791162793926    0.89918622282110
H        -1.91262852854973    4.12682112842448    0.22773952490849
H        -2.99251918903848    5.39453328818155    0.83371741694446
H         0.34667021513757    6.68605615905960    2.61959404832476
H        -1.08669692253760    6.77271161554890    1.56787866743778
H         0.19781424845204    5.61705916859952    1.21292906827219
H        -0.53653816897782    3.73678537329800    9.15998389212327
H        -0.67392868886178    1.97431163943114    9.31355102208822
H        -2.09515991683898    2.99300603911340    9.56314325185697
H        -3.46059925750507    0.01581238116918    7.08388819086318
H        -3.38593210166197    0.98591136721345    8.57231077480162
H        -2.00012606083276    0.01157850765234    8.08806361149440
H         1.29008336406235    3.21335840523349    5.77161218892256
H        -1.19162981666608    1.15619967437696    2.95533190023284
H        -0.21471183992652    0.20170009270958    4.06753948478066
H         3.01066700544261    0.67291302023874    2.87457393086269
H         3.13048139703121    1.87271536341790    5.07803494930066
H         1.99491736849295    0.50890825203728    5.09483438462583
H         1.67201809888470   -0.12195654562351    0.91272566771543
H        -0.07893021305872   -0.18109809797803    1.12357637430823
H         0.97735923097576   -0.99361298073517    2.28711303270552
H        -3.07221505987703    5.39008622136986    6.10935008686231
H        -4.79407995849960    3.88171089425813    4.44882974250280
H        -5.15024983994655    5.53281129071092    5.01018461986537
H        -6.29274176470765    3.87809598685095    6.45499407949554
H        -5.04888833486913    4.71624611208005    7.38881555881120
H        -4.76041413316356    3.07326745632122    6.79711948704651

