67
CSD_code = DABPUT | q = 0 | S = 0 | Stoichiometry = C33H26NiOP2S4 | MND = 4
Ni       -4.17957031894201  -11.72232016184315   -3.59906127654670
S        -5.19777868321368  -13.59344545407268   -3.19517475851361
S        -2.28157688071762  -12.55889947810364   -2.96763252292675
S        -3.54257688538751  -18.45732580050452   -1.27468688270421
S        -0.74692660784613  -17.50581854070871   -1.16237827006504
P        -6.04448915253070  -10.63432199329092   -3.80072449976567
P        -3.22789868198204   -9.98369757521019   -4.47795725236133
O        -1.51323167805295  -19.92390952365163   -0.48206489255779
C        -3.95816836284156  -14.66552646959379   -2.59740786560213
C        -2.63568721223209  -14.21034541958758   -2.53075812111543
C        -3.26274311778277  -16.79916654777489   -1.77917374709503
C        -1.94179423931470  -16.34959075820030   -1.72616234798316
C        -4.27373404594965  -15.96050167635575   -2.21435764944450
H        -5.29360955953144  -16.30637026180295   -2.26149062261358
C        -1.62410356989063  -15.05591743684982   -2.10076801701821
H        -0.60609250720261  -14.70427096087060   -2.05590932458458
C        -1.86064464736546  -18.85553209650127   -0.88724958617244
C        -7.73545371897039  -11.18820480537071   -4.12643480198217
C        -8.33513149574734  -11.98572551602797   -3.15339648007722
H        -7.78814327117940  -12.21502234949122   -2.24899510635979
C        -9.60904070658820  -12.48054876000274   -3.35198852884987
H       -10.07188098650755  -13.09620117556105   -2.59534990155639
C       -10.28928512896343  -12.19129671317267   -4.52474830552151
H       -11.28536408592083  -12.57782215336176   -4.68101638429110
C        -9.68863431038697  -11.41482929350770   -5.50170798809491
H       -10.21573003254472  -11.19792285836953   -6.41940432976773
C        -8.41077095157231  -10.91901593723256   -5.31143515862504
H        -7.94484836644118  -10.32476528782971   -6.08407287595177
C        -6.17733692758222   -9.87767094266358   -2.15112094619307
C        -7.22266014229856   -9.02992652005480   -1.80049829366966
H        -8.01111810604302   -8.82379384576878   -2.51185872056695
C        -7.25121985132081   -8.46810680901745   -0.53741000752740
H        -8.06193395498078   -7.81039530482130   -0.25996794510192
C        -6.24501447534449   -8.74944180519406    0.37478825410607
H        -6.27582214061546   -8.30796173048271    1.35981783110018
C        -5.20659895232683   -9.60023502830599    0.03119418063116
H        -4.42877001026621   -9.82473570950399    0.74558920384552
C        -5.17442344500553  -10.16582200674805   -1.23011517755609
H        -4.36545296363806  -10.85756205123219   -1.51338515329584
C        -1.59807700659763   -9.24439776145348   -4.21610728236014
C        -1.40980176708248   -8.01434213348251   -3.59613245120166
H        -2.25836739017534   -7.42746205783164   -3.27505895452811
C        -0.12691651780200   -7.53790834846315   -3.39078780034067
H         0.01810713433990   -6.57804111793860   -2.91666149487394
C         0.96839557685101   -8.28872262425935   -3.78411760352877
H         1.96681697586153   -7.91285545011526   -3.61710900552635
C         0.78389926381894   -9.52596018751523   -4.38168819535083
H         1.63747867844750  -10.11732905450092   -4.67708878237724
C        -0.49350223286269  -10.00592598493706   -4.59364861596482
H        -0.65137501293089  -10.97514049001117   -5.04657130993078
C        -3.17581622383883  -10.47198107061108   -6.23013285332600
C        -3.68220133592025  -11.72536306374067   -6.56162744258102
H        -4.06133855307292  -12.38178578328169   -5.76248583895236
C        -3.69153736593656  -12.14441750936482   -7.87921593293913
H        -4.08353100422496  -13.11726630854919   -8.13547489240827
C        -3.18923365428341  -11.31223678036134   -8.86686693987484
H        -3.19101334831640  -11.63697311099546   -9.89677037253787
C        -2.67522900397419  -10.06655222534394   -8.53864768106941
H        -2.27795263096855   -9.42641513510521   -9.31274086476808
C        -2.66548103798160   -9.64211382334963   -7.22268310534456
H        -2.25462449691469   -8.67664044613071   -6.95956272048178
C        -5.79451632056655   -9.13592306273108   -4.86383661300669
H        -5.82000977864040   -9.45608643665010   -5.91024290584999
H        -6.59330070659344   -8.40892034085070   -4.69266607801206
C        -4.42039602032462   -8.56514755927428   -4.53338031006648
H        -4.44107838657859   -8.10264092496584   -3.54151045801199
H        -4.09643765869878   -7.82228444949782   -5.26760922240721

