71
CSD_code = DABQOO | q = 0 | S = 0 | Stoichiometry = C37H26NiOP2S4 | MND = 4
Ni        1.09830146536612    1.73240389275822   15.37608805409756
S         1.97349625108954    3.60962421679440   14.74968203023929
S         1.61364177705475    2.09865736182375   17.45611956337600
S         4.54576634622977    7.63562992249652   17.43639916715231
S         4.34513792866238    6.13096649467995   19.97204337541051
P         0.04760211485130    1.49400563808524   13.50920343422020
P         0.71548555893612   -0.35345795206035   15.77281240610883
O         5.50306041476109    8.47645521040120   19.73251615911152
C         2.58425898096805    4.32148659470246   16.22122803395812
C         2.46900751566687    3.61836880299032   17.42752212528947
C         3.73029577934370    6.08260917924790   17.35904467342328
C         3.63492410844155    5.37216423900104   18.55757315485631
C         3.20684634816491    5.56063122090723   16.18976158267059
H         3.28561733582596    6.10262959270872   15.26128449447009
C         3.00418144350950    4.14138990180839   18.59568052906792
H         2.92189427578149    3.59408218224920   19.52069182436867
C         4.92229282579815    7.60003849973834   19.16602073444484
C        -0.12699974472847   -1.10697227498424   17.17949651296547
C         0.55611216220877   -1.25344681339844   18.38417383185009
H         1.59864900702534   -0.97348943357397   18.44156157471094
C        -0.10630824819807   -1.74500545767093   19.49317322745220
H         0.42369730757729   -1.86528126373834   20.42626026860796
C        -1.45012243480878   -2.07482182223771   19.41098283761460
H        -1.96493121400689   -2.45851653342148   20.27925494541070
C        -2.13902261097757   -1.89963500433708   18.22112889251033
H        -3.19016408458045   -2.14173891853418   18.16331324851512
C        -1.48470968049174   -1.40690572166180   17.10742459168366
H        -2.02000071486474   -1.25215770714376   16.17943471556832
C         2.37360332691381   -1.09880283579786   15.72479793640361
C         3.38420559084608   -0.28412972165639   15.21922545124660
H         3.14272509842374    0.74973392987622   14.92702166519606
C         4.67520041274201   -0.76423527899175   15.11227916585709
H         5.45996020262391   -0.13060360551007   14.72688776148427
C         4.95865763641504   -2.06086104536006   15.51244955666660
H         5.96743678928253   -2.43899471047295   15.43755532572740
C         3.95499933508800   -2.87284973290119   16.01737641708192
H         4.18479643443483   -3.87964772826927   16.33430034102615
C         2.65952583446026   -2.39911906387874   16.12375200812585
H         1.88013103206741   -3.02737183752014   16.53162874171555
C         0.36196315283540    2.21438458401539   11.88348367367359
C         1.26071956943509    1.58518975394430   11.02521792967799
H         1.70696504313218    0.64324634310201   11.31782190591996
C         1.57505603004567    2.16584981746686    9.81133158267475
H         2.26506997845659    1.67429650356072    9.14127793044057
C         1.01283556162954    3.38305295316219    9.45888465567541
H         1.26226772866275    3.83645498681659    8.51107485775904
C         0.14426240333529    4.02629153155880   10.32588698229735
H        -0.27840966911530    4.98290425103496   10.05665181832208
C        -0.17719199619644    3.45036528519766   11.54123344923903
H        -0.84161701421838    3.95378385301834   12.22965321720746
C        -1.63653569182463    2.02110158621034   13.95975513909837
C        -1.82092076247703    2.48096125939108   15.26051044029580
H        -0.95242272950295    2.55598230627673   15.93301522196797
C        -3.08059056177381    2.85140596242549   15.69359078867348
H        -3.22241365395506    3.20961463218491   16.70219185559300
C        -4.15719901672972    2.76246237770345   14.82590439961966
H        -5.14314731134686    3.05078875720601   15.15924094219866
C        -3.97542827741404    2.30695213509215   13.52842089226794
H        -4.81894130776858    2.24295710622559   12.85663269501911
C        -2.71851393996121    1.93233181766930   13.09052149384884
H        -2.57307775180097    1.57840411854404   12.07951047560992
C        -0.26168000448677   -0.27984190635427   13.20376148256526
C        -0.03953346830636   -1.12210882761012   14.29612847782983
C        -0.32183137078264   -2.47768104063309   14.19667811040108
H        -0.15489106028048   -3.12653587022331   15.04441125981803
C        -0.81857500714637   -2.98894779160081   13.01061063925905
H        -1.03675584776029   -4.04344524367298   12.93018657701752
C        -1.02965525542027   -2.15451356736548   11.92293708167083
H        -1.41187896729413   -2.56174263975548   10.99867247541731
C        -0.75613723431636   -0.80099977609435   12.01562207970692
H        -0.91634347555259   -0.15259767563997   11.16582910953182

