145
CSD_code = DABROO | q = 0 | S = 0 | Stoichiometry = C56H84FeN4 | MND = 4
Fe        3.47785786822452    1.57633136851533    5.24659349358673
N         2.52525083195846    0.33874449011651    6.55877290798412
N         5.22936430781346    0.55299765575047    5.72720433601743
C         2.05143375795456   -1.75764445975829    7.93140568223821
C         2.94892267434082   -0.75348826695521    7.16694371226071
C         4.28786838869670   -1.13760444484218    7.08941848596737
H         4.53007665567066   -2.05468466957362    7.58707036733311
C         5.39335957475074   -0.44801372907867    6.56200427919033
C         6.73559416287887   -0.95370045542843    7.14648592744959
C         2.75982677899801   -2.30919143590090    9.18498369120853
H         2.02769825727492   -2.76336842524643    9.85014062349598
H         3.26281761649647   -1.51275513853613    9.72842427648131
H         3.48916351560422   -3.07824347754059    8.94493385405091
C         0.69774782815936   -1.22504915738573    8.40897432641050
H         0.07791121874329   -0.88743858308008    7.58937636367311
H         0.81664890538682   -0.40223134068206    9.10768286836313
H         0.16469281927253   -2.02726459660598    8.91978847348459
C         1.79158446591992   -2.91506212949192    6.95217404236589
H         1.26835075766651   -2.55491504699799    6.06939753703454
H         1.18273469331263   -3.68165090873321    7.42902074519390
H         2.72713325622498   -3.36786166982160    6.63134015559134
C         6.91774232889491   -2.45066925636529    6.83709756210569
H         7.94574890041348   -2.74645202575928    7.03832917345265
H         6.69715546571653   -2.65924741399627    5.79424060560026
H         6.27460172998973   -3.07510058156242    7.45113148468486
C         8.00274511501422   -0.22743980124166    6.68565871016097
H         8.84949475813296   -0.61230550241013    7.25471074413994
H         7.94300888145978    0.84026322493708    6.86181722804127
H         8.20864346719408   -0.38317691830800    5.63405716929607
C         6.66283926999693   -0.75881456377381    8.67345714046033
H         7.58971473814878   -1.09558986351052    9.13492582514848
H         5.84178253052771   -1.31316464169460    9.11680121976614
H         6.52262712876123    0.29293490423224    8.91421826952514
C         1.38704181232514    1.07998841389155    6.90793758549294
C         0.17460790277878    1.00595601490528    6.18750380399745
C        -0.92339138833116    1.73072007661978    6.62459760809484
H        -1.85532122461778    1.65816753643397    6.08444637778716
C        -0.85886185467446    2.53271914322570    7.74750727415164
H        -1.73312568891177    3.06815004551534    8.08816644046998
C         0.33973932712889    2.65217305854632    8.42251376479919
H         0.39578936737391    3.29778111784524    9.28656983569587
C         1.46517528183856    1.95152820868105    8.01796598950960
C         0.04099596083681    0.16360984118833    4.94075610212187
H         0.99050028658638   -0.35374307970142    4.78715486020007
C        -1.07580417891752   -0.88089610061908    5.03003135818005
H        -0.92245259826121   -1.56635454418280    5.85972733677992
H        -1.10106399854145   -1.46394141838767    4.11082444950202
H        -2.04647685715750   -0.40742136399694    5.15704098255308
C        -0.21855507270810    1.07661831348391    3.74064745635098
H         0.56722477302519    1.82188899336336    3.65877652497723
H        -1.17258761388283    1.58701766622373    3.84969740664407
H        -0.24671566361100    0.49606080881819    2.82113908538943
C         2.76512839392372    2.16022813673657    8.76312662984214
H         3.55486118309764    1.61372755224150    8.23529827418186
C         2.69591436661569    1.63713262807888   10.19900160130297
H         2.50281459399129    0.56804179011918   10.21250896985506
H         1.90398454673739    2.13444445607436   10.75530110256851
H         3.64016926727051    1.81985527140906   10.70871119680797
C         3.13261945212354    3.64631189290771    8.77043583821104
H         3.10009145517314    4.04717267942578    7.76027315186711
H         4.13441581392782    3.78276760500123    9.17141508589412
H         2.44273267999440    4.21817096567213    9.38667603350111
C         6.23741164443648    1.20322561397831    5.00293872452671
C         6.63964176573033    2.50831151621161    5.36627932972239
C         7.66020842933787    3.13057769710860    4.66508050352735
H         7.99813686263354    4.10938209586345    4.96962238702140
C         8.26107946073560    2.52304749981513    3.58064543724564
H         9.05587275552100    3.02181743101359    3.04518116347323
C         7.82882730064613    1.27343120734248    3.18481802186443
H         8.28712743210306    0.80969541408708    2.32392759714309
C         6.84040794218800    0.59200194839144    3.87836865534575
C         6.00786458032307    3.24050935984475    6.53243983995830
H         5.09415396490938    2.69757661917912    6.81564440402701
C         5.61210018681080    4.66742681918296    6.14537876386210
H         5.00490982679076    4.65384700622772    5.24472113113486
H         6.48792559547163    5.28524592537388    5.96370634921597
H         5.04288963503340    5.13078719059798    6.94892870955013
C         6.94678689451945    3.29046084749950    7.74163087122414
H         7.10229020255930    2.30094710959932    8.16264042698057
H         6.52535451745526    3.92526698992823    8.51899077182371
H         7.91493239331962    3.69810241907577    7.45694634660546
C         6.43954557904292   -0.77914160273136    3.37658275632054
H         5.70219301332753   -1.19530789465261    4.06702052725463
C         5.79124790958867   -0.65966188904945    1.99487709337576
H         4.99744177428451    0.07728001773375    2.01458600457565
H         5.37413620970826   -1.61783422563476    1.68989275149536
H         6.52570681554323   -0.35656855205186    1.25218201170518
C         7.62082047283897   -1.75058211285336    3.26818371264707
H         8.14443243066462   -1.86769696124499    4.21223450880581
H         8.33870523742738   -1.40770012390922    2.52686375975140
H         7.25933068157761   -2.72897033322382    2.95554511221455
N         3.05497737533819    3.15123703716521    4.51231285053545
H         2.90907215222990    3.72535887739673    5.34924572703691
C         2.49932078184877    3.80211579702369    3.42526264724854
C         3.15657710808178    3.80432518541074    2.17425759210112
C         2.55582196287256    4.42625112936417    1.09163086398444
H         3.05616768085965    4.43243669495587    0.13534484181510
C         1.33653410187187    5.06443274695527    1.21354695661940
H         0.88238956561577    5.54137439141758    0.35731161656836
C         0.71919487295729    5.11919261557945    2.44941575077844
H        -0.21147981544691    5.65605531441197    2.54415055414863
C         1.27288807624475    4.50011103992775    3.55588359920563
C         4.57140092563701    3.28265653011983    2.05284173061907
H         4.75170974667952    2.58185452344248    2.87685539043751
C         5.52639066817884    4.47349345850669    2.19746467230504
H         5.36088170679831    4.98969110107090    3.13865869790368
H         5.36514218824027    5.18427171624063    1.38851760808523
H         6.55839646043188    4.13383296775084    2.16811028413910
C         4.86947007448146    2.57779142723604    0.72978123450185
H         4.14517971558680    1.79489846917928    0.51991245528856
H         5.85918542176846    2.13048580225472    0.77892210261353
H         4.86561085173616    3.28180604150420   -0.09947489037780
C         0.60358245488425    4.59937005731337    4.91128127599952
H         0.81594242571285    3.67868397604062    5.46867391115694
C         1.17947346308557    5.79242434877139    5.68591593923064
H         2.26509290704697    5.74365022903462    5.75221271099673
H         0.77247790571105    5.81811600474062    6.69500823215909
H         0.92092853042279    6.72188847125178    5.18195248737437
C        -0.91628695422373    4.73664879620688    4.83510294351392
H        -1.33660788119957    3.98844500310008    4.16838922240135
H        -1.20897062935812    5.72341954137738    4.48368032098376
H        -1.34051991271975    4.59391518294996    5.82632610634933
N         2.97212773812912    0.15119954376151    3.42672100577920
C         3.04450661027491   -1.14923922319398    3.71019812609032
H         3.45603245191450   -1.39541406903571    4.67829843120227
C         2.61328372550597   -2.14233943961773    2.85408879815898
H         2.70198410274527   -3.17193195617473    3.16419259367655
C         2.07011083412026   -1.81073560864517    1.61209642369349
C         2.00289038670677   -0.45328185897273    1.32263813717311
H         1.59943738460784   -0.09355510535535    0.39081353908960
C         2.45504805961134    0.47388893726435    2.24863879687125
H         2.39333370565814    1.53043665559387    2.03449650166275
C         1.59019265006147   -2.89868955546328    0.67079000661052
C         0.48790544721725   -3.70597722877383    1.37122471342765
H        -0.34463778289209   -3.05642670818171    1.63451395484641
H         0.85532723987461   -4.17502823645669    2.27985271786198
H         0.11893718486464   -4.48641342018343    0.70949761845124
C         2.77356405604750   -3.81513495384141    0.32978714988469
H         3.56632984877039   -3.24315370582540   -0.14842782270087
H         2.45403703867169   -4.59887965411932   -0.35342985883298
H         3.18028473992456   -4.28532979247785    1.22101200576159
C         1.02247757512375   -2.33426077605298   -0.63365455221880
H         0.16505758112733   -1.69305356298907   -0.44210313312205
H         0.69405759746680   -3.15269254476577   -1.27079980146442
H         1.77639340384001   -1.76811809568717   -1.17573186852827

