128
CSD_code = DABRII | q = 0 | S = 0 | Stoichiometry = C49H74FeN4 | MND = 4
Fe        3.64908755626499    2.58760784533740   25.11522487266200
N         1.42844069580965    3.20189351318272   24.86313374558835
N         3.85162700026910    3.98020789314522   26.62624890173001
C        -0.01478366024318    5.25189692037781   24.50232622441747
C         1.16737385836257    4.45896470732075   25.12608801590589
C         1.95731984248440    5.25799558573464   25.96590478691866
H         1.56751340375135    6.25069796374489   26.08162574915633
C         3.04892951774824    5.00197437197372   26.80878447353992
C         3.17809328238396    6.04527254834106   27.94978552526430
C         0.62339834519309    6.22444181992931   23.49509620683889
H         1.11213074570232    5.66395208068281   22.70090899590997
H         1.36800288668625    6.85802828417795   23.96966467686175
H        -0.14110353915090    6.86091818774820   23.05189935585357
C        -0.79680910957302    6.04396471564904   25.56714353059440
H        -1.76706586989488    6.33599015654526   25.16888551070284
H        -0.28753646228353    6.95691355373967   25.86468969075694
H        -0.96197652286163    5.43516880282976   26.45220726886136
C        -1.04904202954321    4.43027024801042   23.72801979185489
H        -0.59230716806454    3.83129891312270   22.94990102998048
H        -1.75297730054956    5.11438974467870   23.25277087884016
H        -1.61099514870116    3.77125659331068   24.38169676845363
C         1.84733056504025    6.06671467579945   28.72329706145781
H         1.01390527774969    6.37215498607901   28.09973132480120
H         1.91517862526724    6.75969839581670   29.56028747136617
H         1.62526777083631    5.07641160142167   29.11482026970168
C         3.45100722924230    7.43614146767838   27.35221710625043
H         4.33297842769289    7.41139357392394   26.71778140511984
H         3.62572346950314    8.15066801332615   28.15475572707240
H         2.61740416388826    7.80280379233941   26.76051461283729
C         4.27482264152293    5.78855259716669   28.98784249556729
H         5.26748938643944    5.87303712095448   28.56219597896317
H         4.18214759477338    4.81012638203977   29.44464888052965
H         4.18633484631158    6.53523323599678   29.77728771053700
C         0.51805466273139    2.24215594654464   24.44389923791021
C         0.61205195591522    1.65753309218982   23.16271370902041
C        -0.29229855948598    0.67700927749878   22.79130123399698
H        -0.23987423395801    0.25200078669509   21.79956884369453
C        -1.26781272147105    0.23152962239248   23.66355300445752
H        -1.97522878514118   -0.52332461605038   23.35279416411568
C        -1.31622644814476    0.74925088075207   24.94385408424236
H        -2.05429894973523    0.37232061113817   25.63668707194405
C        -0.44413890787499    1.74581584282179   25.35235597442521
C         1.68919673903217    2.08665322420599   22.19181908227918
H         2.31925008439496    2.82051124646872   22.70454014591384
C         1.11121240844670    2.73172130709450   20.92905200527694
H         0.56519526065591    3.64263381140285   21.16426169182316
H         0.43062380311740    2.05075610824985   20.42290975500200
H         1.91412843989566    2.98494696536868   20.23838587343410
C         2.56963851117998    0.89493054974780   21.80527367022500
H         2.97771123307760    0.42320207037076   22.69598380232348
H         3.39623212252507    1.22554719455854   21.17836131092396
H         2.00038955155722    0.15297806561650   21.24990079845666
C        -0.50033205447044    2.24185531886650   26.78094203704109
H         0.16872045586882    3.10160333345983   26.87615493609012
C         0.00532479127490    1.14508675033000   27.72192001502754
H         1.01616182142483    0.85445576723626   27.44901863802880
H        -0.63414678214983    0.26649404499599   27.66772466266063
H         0.01178256455442    1.50367922378463   28.74941220526505
C        -1.90652034475700    2.67705952805736   27.20030933734049
H        -1.87410046512959    3.13125352362212   28.18924567959054
H        -2.58410562336208    1.82755747726185   27.24368573037069
H        -2.31737558141955    3.40322112773279   26.50282411813447
C         5.00123233583620    3.63269750074412   27.34037792715517
C         4.94261898372357    2.60939341743503   28.31113034000994
C         6.09139954849350    2.26511263504762   29.00599014831174
H         6.04262459776058    1.50504492370106   29.77090699307932
C         7.30140488537979    2.87525588366175   28.74019038486912
H         8.18680319254353    2.59483963814997   29.29123018979579
C         7.37235322322624    3.83801244215440   27.75173722527797
H         8.32548314697543    4.29631558797999   27.53314495235900
C         6.24552608365160    4.23660889430997   27.05041409194637
C         3.65103812188215    1.87941640882883   28.60350638966227
H         2.93280841929771    2.14565943603106   27.81826240054141
C         3.06598433256448    2.27811892854149   29.96158575123364
H         2.74861153703165    3.31732579582169   29.96599357240997
H         3.80174506150737    2.14037080850155   30.75184422636546
H         2.20032558273420    1.65912229411162   30.18804593158996
C         3.86167609267686    0.36287936758985   28.57471867607061
H         4.39425676545621    0.06137698895782   27.67748344162728
H         2.90093095619411   -0.14746194356773   28.59110513993879
H         4.42769036091048    0.02884998732298   29.44118870039084
C         6.38497897143999    5.28850085522906   25.97144820048779
H         5.38198856624048    5.57373273924953   25.64091137208065
C         7.12804246586123    4.69497994364716   24.77183096916123
H         7.23229408091092    5.44028569160767   23.98534555911219
H         6.57414361776762    3.84665248678219   24.37961446397119
H         8.12283822623938    4.36393521363407   25.06292958014282
C         7.12050323733308    6.54341683571321   26.45189083445972
H         6.67085132661868    6.95050545852091   27.35412999119908
H         7.08661108247383    7.30929338423053   25.67871907155776
H         8.16519231399909    6.32854387324716   26.66274919918080
N         3.16350549087957    0.87714652116517   25.23441520430180
H         2.15371320071615    0.74744073854649   25.23568915530961
C         3.78506282080923   -0.35104246550729   25.23732747848506
C         5.20008900880179   -0.42872397530933   25.22301905970890
C         5.82996872570722   -1.65879081847475   25.27841972994356
H         6.90697706659362   -1.70995413707575   25.26315861228550
C         5.10429940562643   -2.83274954940541   25.35005814531207
H         5.60836697701495   -3.78600795594892   25.40425963315922
C         3.72610446293624   -2.76896999589374   25.33091113057032
H         3.16203087171599   -3.68888372105716   25.36724307685057
C         3.04718294487451   -1.56259099528434   25.26271776792560
C         6.02786131820563    0.82472008610951   25.06109482662065
H         5.47382499199280    1.67342873933466   25.50595893755218
C         7.38162319353668    0.76521086731372   25.76702721690954
H         7.26569126349478    0.41472772287596   26.78968048056196
H         7.81939408950003    1.75984030090260   25.79964667527856
H         8.07424098179408    0.10987733387646   25.24414445761765
C         6.21915188062321    1.08754170113832   23.56090821503958
H         5.26232259884473    1.31151336531696   23.09085998836852
H         6.64540307975569    0.20657129261104   23.08391313801431
H         6.89293504264658    1.92493532711430   23.39701252674193
C         1.53437645892889   -1.62619874127394   25.20247990737936
H         1.10356465926215   -0.62391580754831   25.13896336906464
C         0.95729258762361   -2.28458382165801   26.45830561200663
H        -0.12924811268319   -2.23171862629943   26.43762774781815
H         1.31247439843606   -1.77714541352985   27.35237839093701
H         1.24695125730106   -3.33016697819053   26.52346664096891
C         1.08273758456870   -2.37465669775776   23.94530789299796
H         1.48547896226610   -1.89288187081431   23.05757331497291
H        -0.00268188730516   -2.36522045668073   23.87938488777044
H         1.41934157808493   -3.40822113447706   23.95867768636933
N         4.01361216489261    3.93939319200408   24.04196114168979
C         4.13727840969806    4.72793109909588   23.19754178737657
C         4.30218938511492    5.69889594782201   22.14943125710846
H         5.34069768391293    5.72102549623916   21.81625671896676
H         4.02499068895087    6.68835425688421   22.51516326979030
H         3.66401237753311    5.44580532209486   21.30195033033270

