110
CSD_code = DABSOP | q = 0 | S = 0 | Stoichiometry = C43H63FeN3 | MND = 3
Fe        4.61164046076920    0.05252025342414    1.58299707992814
N         3.96301236700392    1.48450286346312    2.84270639207304
N         3.59807146002888    1.09406982575337    0.21210363694837
C         3.13857321098972    3.71508351817901    3.74167475468549
C         3.31103049771881    2.61829756959702    2.66688759644694
C         2.82947615918423    2.96594307973605    1.40286785278081
H         2.30064294537793    3.89555741428636    1.33531376109230
C         2.95729247662913    2.24298366043126    0.21395947769080
C         2.21152700616495    2.84129622638136   -0.99687855071659
C         4.15157193526403    4.81332021597303    3.37419606432155
H         4.06860419915047    5.64865059704405    4.06726600639134
H         3.98142372501828    5.18269676017596    2.36621834703112
H         5.16526728221236    4.42178677976381    3.42419170080026
C         1.71759328169013    4.30613514934510    3.72558982773871
H         1.58002752195024    4.93955071057127    4.59976567972196
H         0.96862647397487    3.51799556697356    3.75924487253252
H         1.53105773123144    4.92142605953216    2.85042504291086
C         3.41166628172867    3.29551533449160    5.18859602107536
H         3.35522325951960    4.17942155830861    5.82379363987316
H         4.39665969775341    2.86201072845535    5.31138860682699
H         2.67433651724522    2.58148291675515    5.54285087557206
C         0.71031357725843    2.74237159718154   -0.67644832467016
H         0.12592727628600    3.17615166729996   -1.48586234634058
H         0.46282430586802    3.26451408469620    0.24334432183315
H         0.42008937370305    1.69971560232389   -0.56391454349712
C         2.59895129287586    4.31294113911966   -1.21151713046766
H         2.09656158984015    4.69405525196320   -2.09866103524056
H         3.67163666798778    4.40939036272170   -1.36350578625492
H         2.31379526964398    4.94465466013229   -0.37600698581304
C         2.43870461831937    2.12754810238158   -2.33133795138057
H         1.80779618435915    2.59257187562887   -3.08842421533301
H         2.17226912182013    1.07826580163917   -2.27509148431972
H         3.47014953848484    2.20774020555314   -2.66086064877286
C         4.14990548154515    0.81543964957447    4.05484126450757
C         5.43615215039711    0.66798006005356    4.61244305967255
C         5.59031253752306   -0.08410917502107    5.76760742454703
H         6.57203188710158   -0.19666528319027    6.20238677584143
C         4.50826041621254   -0.68851105344406    6.37531916760958
H         4.64575857663369   -1.27383282648054    7.27247548680742
C         3.24245705871467   -0.53550696977685    5.83590217558318
H         2.40686119670262   -1.01131936367850    6.32394329610039
C         3.03725986702281    0.21392056058770    4.69189005660829
C         6.63923496487357    1.34455309142320    3.99405429150549
H         6.30586543890207    1.83787285739990    3.07343075092297
C         7.23248044769888    2.40799118822122    4.92347372250113
H         6.51656037691429    3.19990139055275    5.13030236906059
H         8.11001426846443    2.85553206614770    4.46064059910034
H         7.53320497110439    1.96742449288192    5.87118426260276
C         7.71614179693181    0.31841742697600    3.63506664856828
H         7.27567176176877   -0.50060553720464    3.07205984680968
H         8.17592435653754   -0.09007908696417    4.53139262213256
H         8.49544972388746    0.78436310184670    3.03534162383664
C         1.65846866833687    0.36883829412093    4.08854688058465
H         1.59881605392245    1.36110136209379    3.63283094337194
C         0.52273316061722    0.25342706436764    5.10446241329804
H         0.70030783258719    0.89635096906410    5.96422260120245
H         0.40589575180362   -0.77001176906980    5.45259184900660
H        -0.41435064047080    0.55468975161245    4.63997264414506
C         1.47621342143905   -0.65331500661300    2.96453085152623
H         2.26948015982771   -0.52460668369348    2.22373645236118
H         0.51404718526533   -0.51147231658707    2.47688844140412
H         1.52137155703400   -1.66477568949986    3.35982167779624
C         4.14981096007956    0.41803624938583   -0.87670298146865
C         5.32055816480648    0.92424204185890   -1.49098540774207
C         5.92765022270702    0.18545379076487   -2.49106615728059
H         6.82953795413080    0.55208950063281   -2.95679521207316
C         5.40293071424874   -1.02753487919687   -2.90595070148701
H         5.89447640242574   -1.59039007985608   -3.68571382104327
C         4.24711540434875   -1.51069480601961   -2.32314794055830
H         3.84246280341706   -2.45386039066167   -2.65671479239642
C         3.60209116152643   -0.80259893158448   -1.32204421424086
C         5.91675022038517    2.23198358003801   -1.01830745921259
H         5.11292615014534    2.83739187883358   -0.59049957745668
C         6.57190267694980    3.04131427091048   -2.13789556585173
H         5.90619816254965    3.12946206709061   -2.99409724148049
H         7.50099295860982    2.58320119077235   -2.46819248943073
H         6.80463004018422    4.04236049599749   -1.77962158018029
C         6.92010711982105    1.95502778279047    0.10406734994320
H         6.40648152937670    1.46107548129412    0.93422185930988
H         7.35263076745774    2.88546019690506    0.46599849471770
H         7.72414066996949    1.31306920016307   -0.25082552393387
C         2.32497876428648   -1.33191586459234   -0.71316448572397
H         1.90341372246627   -0.54149991695935   -0.08267056710469
C         1.28374622167474   -1.70937447384207   -1.76948091235334
H         1.08576072067474   -0.87829633120905   -2.44350355419160
H         0.35021891627198   -1.98487883093712   -1.28295162426540
H         1.61600716967752   -2.55664168644556   -2.36353943124681
C         2.64337352515873   -2.53539225594191    0.17432012337003
H         3.37965158441262   -2.25212087982941    0.92348769625094
H         3.05679480434555   -3.34944973551350   -0.41625853457089
H         1.74544539611376   -2.88966965436752    0.67490064305040
N         5.82705304582666   -1.23197095675386    1.37323855494121
H         6.60643802211145   -0.82931988756346    0.84940712252105
C         6.00376142313529   -2.59526549568826    1.43040966728744
C         6.90274203384264   -3.23941552444408    0.54780323122595
C         7.06686009121228   -4.61063161918142    0.61289284991356
H         7.75197259850506   -5.09036204092162   -0.07261362706519
C         6.37393619135614   -5.37582528906316    1.53429799146664
H         6.51048349748993   -6.44624345876861    1.56831586873285
C         5.51265875379223   -4.74871418442810    2.41438732490111
H         4.97695054446806   -5.33046441505347    3.15157952114978
C         5.31877489031428   -3.37834621071791    2.37986226660610
C         7.67942242992768   -2.44760288916876   -0.46604804670497
H         8.26841163766824   -3.11634799029894   -1.08918276552787
H         8.36697412219605   -1.75145606799722    0.02011295202668
H         7.00980403263379   -1.87682693569130   -1.11097699664270
C         4.40576698205704   -2.75033527781878    3.39033316018786
H         3.44117531138528   -3.25326481418708    3.40028183421737
H         4.25491342002261   -1.69223838749913    3.17223945616277
H         4.83574232737878   -2.83367727023935    4.38856048874078

