106
CSD_code = DABSEF | q = 0 | S = 0 | Stoichiometry = C39H63FeN3 | MND = 3
Fe        8.56430100356654    4.70354905229029    2.77393046686681
N         8.50838426262192    2.41275351431322    3.24562768538847
N         7.54993458859726    4.25328076582843    1.30154823121678
N         9.42645900180928    5.31476841768940    4.15218640080565
H         9.61714613962973    4.74778518527938    4.98211644305636
C         7.86463393281883    0.00333589734896    2.79543233033037
C         7.88727400354981    1.52848208519724    2.53552935925462
C         7.18549320566193    1.91097460159989    1.36312536429279
H         6.70982735030536    1.09601159830370    0.85222522890029
C         7.01444414942871    3.14842275091386    0.77054810474706
C         6.12984581914824    3.11741407814439   -0.50033850883834
C         6.41533657452829   -0.51181164860418    2.82565662287747
H         5.82515799030590    0.05192571256886    3.54559410085424
H         6.40690076433825   -1.55797807552633    3.12651414037355
H         5.92527785821814   -0.44645538911112    1.85866452161708
C         8.51189415617850   -0.45078558255424    4.10711825634175
H         7.97338013755020   -0.07395473037575    4.97081817795421
H         9.54577860819587   -0.13372191758511    4.18133238216355
H         8.49168763418056   -1.53998086598327    4.14863355746133
C         8.63633512901602   -0.67093623482821    1.64927489507026
H         9.66864940696262   -0.32798217547570    1.64159361460091
H         8.20067286790982   -0.44813534901026    0.67926095525854
H         8.63355602562928   -1.75146699056340    1.78303041884843
C         5.98982606072538    4.43119577114296   -1.27595845879549
H         5.57077791712823    5.22475633921354   -0.66810941884849
H         5.31361366839877    4.26484029309362   -2.11462703785649
H         6.94031554609307    4.76551753050247   -1.67907431186666
C         4.71296211574025    2.70355916271458   -0.06737706210716
H         4.70727091486425    1.74196764442881    0.43731109520286
H         4.06237350842423    2.63557856415547   -0.93754935943044
H         4.29844439413300    3.44390463015360    0.61352354995617
C         6.69018631084373    2.09275622046713   -1.50337425272174
H         6.63870060348164    1.07275190107638   -1.13548292373619
H         7.72876138484753    2.31835293543587   -1.73690137434930
H         6.11785156105008    2.13666108376331   -2.42811938322881
C         9.15500366376190    2.26793093548571    4.46140850533306
C        10.55719080075290    2.18529299661426    4.52171807543453
C        11.18556497407785    2.20672447691595    5.75625851171132
H        12.26238912109885    2.13713952549556    5.80839319328468
C        10.45893122024196    2.31754906825166    6.92621213183853
H        10.96329438181963    2.33997109610633    7.88124491579395
C         9.07822487180363    2.39605657849606    6.86699383786980
H         8.51996031986090    2.48148835130573    7.78646595545447
C         8.41008684433155    2.35915352362079    5.65629395851689
C        11.37549459463246    2.09476073833370    3.25380804343108
H        10.68212624399729    2.11350295479162    2.40538849336501
C        12.19691111081842    0.80442349829039    3.19172272049405
H        11.55779593123452   -0.07356145511030    3.25605629646574
H        12.91157099311999    0.76189094440943    4.01042504362940
H        12.74882487294614    0.75709604635476    2.25452634999637
C        12.29464304001782    3.31128242093552    3.14151481285649
H        12.83001830685471    3.30319861154085    2.19440121470295
H        13.02549379370950    3.32054625138811    3.94664168515920
H        11.69506450564606    4.21601338566097    3.20509788257038
C         6.90205921677274    2.45083935513966    5.57959513779719
H         6.57792053956311    1.89459916914712    4.69487572273691
C         6.18709858419857    1.85977139816012    6.79424466526444
H         5.11867021297234    1.79354036008350    6.59642201842783
H         6.32356470199613    2.48262871216998    7.67502498058326
H         6.55763459852898    0.86063300847520    7.01519393758098
C         6.49406075402172    3.90945747848776    5.37021389975670
H         5.41380795937981    3.99434707123263    5.27182551462118
H         6.96891786232912    4.28126186326718    4.45467546256033
H         6.81977101210725    4.52023283929449    6.20931655362451
C         7.55530215457446    5.54543672720636    0.74726827474124
C         8.57413264986796    5.91673751160309   -0.15925143559201
C         8.66952929995589    7.23579334440904   -0.56631158321536
H         9.45467033810105    7.53373350913939   -1.24357990806817
C         7.76702175569132    8.18683260671752   -0.12267223260237
H         7.85338320905088    9.21075930088222   -0.45379716404122
C         6.75377126070110    7.82058051768807    0.74265210450096
H         6.05134138777159    8.56885886429541    1.07869686918859
C         6.62635857492577    6.51284213213299    1.18582429672385
C         9.56104633425942    4.87104951391125   -0.63017083189515
H         9.06933764921727    3.89372111193264   -0.57949490807975
C        10.74972277229758    4.83390473751684    0.33320255915532
H        10.39112391001756    4.60662978785235    1.34742630365997
H        11.26002439652660    5.79498008666117    0.34464717046129
H        11.46007498163700    4.06695183602876    0.03257075746937
C        10.03890278887205    5.08529693857127   -2.06649346772822
H         9.19679886606295    5.23685719483884   -2.73892261589995
H        10.59390667070867    4.21194381732207   -2.40379076804777
H        10.69825883455661    5.94658552441895   -2.13944042085827
C         5.51395736446493    6.14054340751542    2.14234285208974
H         5.53880225106780    5.05412169045770    2.29096723886656
C         5.75814731617759    6.80508528288068    3.49898196793521
H         6.72773409541557    6.48983019781851    3.88707581694298
H         4.98641609447142    6.51820707366422    4.20983925835666
H         5.75314736403226    7.88885479425192    3.40386285753451
C         4.13296306055568    6.52501322309246    1.60602897774605
H         3.35986131152194    6.17370617406508    2.28679004115516
H         3.95289956204999    6.08300214692678    0.62832049040410
H         4.03589603864358    7.60381373103236    1.51247835013623
C         9.92861879769288    6.65257578621972    4.40593833655951
C        11.44122098519445    6.62262449230621    4.69138649009826
H        11.99045282441494    6.33621723490685    3.79832753572471
H        11.66200876677902    5.90491334315066    5.47928876201973
H        11.78493518794957    7.60467512840108    5.00803834456161
C         9.66399428002187    7.52796919015076    3.17549712573137
H        10.12922010957073    7.08502991849318    2.29793038755272
H        10.07144308954352    8.52443594210370    3.32371520519650
H         8.59727721770664    7.61072605427904    2.98658330738507
C         9.21814457394392    7.24693226942664    5.63639573052876
H         8.14177707445372    7.25417150325576    5.48415907740783
H         9.55248425298526    8.26606020099472    5.81502339817595
H         9.43704091809327    6.64818817110216    6.51862211550000

