49
CSD_code = DABXIN | q = 0 | S = 0 | Stoichiometry = C19H25IrO3S | MND = 8
Ir        0.59335053271357    1.72661758420470    4.33681546207947
S        -0.02207078285836    1.68558611831287    2.08589408890320
O        -0.95727444784385    0.32914889215737    4.39789312447612
O        -3.15681379669992    0.05967859860295    4.36997167851686
O         0.97830286925917    2.30008667928958    1.21142280053451
C         2.34765099495474    0.41676308930188    5.11577248313105
C         2.80709780839660    1.10107767326177    3.99782787118906
C         2.65544043592373    2.52914767869672    4.23769377474779
C         2.18078040361357    2.71183848432228    5.56222057452178
C         1.84977796161984    1.40067497625104    6.07208142064492
C         2.32657343769753   -1.05462945793187    5.36095861884524
C         3.44167784343723    0.54886580589102    2.76508708708802
C         3.17691975704245    3.57102948466471    3.30397470618990
C         2.16507954690092    3.97594462992092    6.36303848280286
C         1.49894979770117    1.08254739940726    7.49295728052705
C        -2.24242918230141    2.23367377692722    4.79994783056550
C        -1.01693299978707    2.90964715722793    4.74348185167218
C        -1.02741593511923    4.28582667292001    4.91403133998758
C        -2.21698947236630    4.95797441921883    5.16181980586028
C        -3.41819229839991    4.27128006669116    5.23112274609739
C        -3.43397781304732    2.90224637538073    5.03941900434797
C        -2.17354519966960    0.76234095560981    4.52394504260466
C        -1.64594436179757    2.29150038672480    1.51938345769759
C        -0.20093804276169   -0.03237467015326    1.51329892584676
H         2.87822675829533   -1.29178511224312    6.27065966628431
H         2.77400483124163   -1.59788754902827    4.53282066446261
H         1.30134917428006   -1.39983033554038    5.48789959714026
H         3.03483851719181    1.03558625565666    1.87941496277031
H         3.28487889712256   -0.52447870937089    2.68245290047495
H         4.51667078782794    0.73672121718531    2.78270274603229
H         2.75126076483146    3.43027026101530    2.31073672869077
H         4.26157048352710    3.49211891985968    3.22179582315773
H         2.92662076995772    4.57091193876146    3.64760376861434
H         1.25425683397090    4.05821490861368    6.95081363008839
H         2.24489988421530    4.84844142124275    5.72103436369893
H         3.01487568545937    3.97690644100490    7.04720908954749
H         2.41091287440512    0.92934120884409    8.07304669611941
H         0.90208042856971    0.17574399284999    7.54566428350950
H         0.93534830888471    1.89493201122948    7.94377705305561
H        -0.11050947143613    4.85235907295574    4.85019586893294
H        -2.20198867039060    6.03018054021315    5.29926050258609
H        -4.33637174016864    4.80550167049840    5.42659916101557
H        -4.35098456090553    2.33249479311579    5.06730664070244
H        -1.68289895623767    2.20786594560545    0.43951396182838
H        -1.74251777106951    3.32834084694560    1.82124791515462
H        -2.41476431108831    1.69239742090444    1.99149282811789
H         0.75511892267527   -0.52737116624304    1.64014642738242
H        -0.48382624924554   -0.02786080029601    0.46738556703773
H        -0.95182924839681   -0.50750797025338    2.13265969512057

