113
CSD_code = DABXOV | q = 0 | S = 0 | Stoichiometry = C36H66B2F6P2Pt | MND = 4
B         0.32138440699540    4.93795476496173    4.34453999873499
F        -0.51633216062692    5.36642304129415    3.35231070518503
F         1.27682758729562    5.87779840082303    4.63816211800786
F        -0.37913100493893    4.54619197283635    5.45257726289403
Pt        2.18882492143874    1.89459251861482    2.99865632039605
P         3.88979544086496    3.34510504210363    2.35848088664802
P         0.43795400275002    0.62778434288579    3.85079349391770
C         3.97911937249479    3.86090395302007    5.04379740854028
H         3.35914694493216    4.74162093034641    4.87913521136870
H         3.31312510494175    2.98892266316834    5.11397331781983
C        -1.15964619627861    1.53025742562366    3.60658442537784
H        -1.04437891773052    2.41882803936586    4.23919953557491
C         2.04467274340374   -0.16665610798689    5.92205451678245
H         2.15837910166668   -1.12996208597919    5.42050782415198
H         2.77760987358408    0.52084447506605    5.48222119064787
C         0.34944660097871   -1.12401999228038    3.20032080248454
H         1.39615453354941   -1.45644634972999    3.25226952099595
C         5.07618754852157    2.73097691910233    1.05829867877234
H         5.34632281326575    1.73514488180450    1.43947338630524
C         5.80676466902830    2.40973383506493    4.16229474115058
H         5.16368786961898    1.52764113846070    4.23757535432877
H         6.52114256312592    2.23507876774644    3.35730988441896
C        -0.05120450199726   -1.13529246228064    1.72521134045665
H        -1.11108313692614   -0.89407290816937    1.63008745309921
H         0.52806898316668   -0.38621441199955    1.17816860935404
C         0.64250664182191    0.40222123080875    5.68286736213875
H        -0.11225284898829   -0.30358738404913    6.04909691147398
C         4.93367479513173    3.63281294947474    3.86803925700915
H         5.56495733977319    4.51788945622132    3.72531776730198
C        -1.28839939323757    2.03859972972780    2.16901988068702
H        -0.36369164582630    2.55024238427361    1.87980950427207
H        -1.44791628606608    1.21219502665805    1.47513676462529
C         3.18983003246369    5.00104666223293    1.90965017496214
H         2.75536287309313    5.36330369795613    2.84874089666789
C         6.36978886250320    3.51305451768593    0.83403656564746
H         6.87449298074482    3.72583370786453    1.77731997456520
H         6.16034195459942    4.46442723443996    0.34686620537654
C        -2.43213772162216    0.80714979005521    4.03519414325304
H        -2.62958555599129   -0.03513268754767    3.36823683212759
H        -2.33559062039996    0.42506747855129    5.05419873781983
C         2.03567513771279    4.84209170054143    0.91692947590648
H         2.40795930861016    4.51784513638961   -0.05674467814672
H         1.33869124495472    4.08176455375233    1.28314714815693
C         4.37391315313022    2.51689666549267   -0.28229124603206
H         3.42229079990557    2.00106946138567   -0.12740725291926
H         4.17247466287380    3.48017200969275   -0.75384152613276
C        -3.75142521496310    2.32026566701984    2.53194317725583
H        -4.58158843237413    3.02714867636049    2.48898073754370
H        -3.98361635149622    1.49203202318510    1.85596777424682
C        -0.49270354719261   -2.13890624253077    3.97193747109426
H        -0.21158900006168   -2.15876686563179    5.02557812667056
H        -1.55102007024292   -1.88558307920631    3.90753136796680
C        -2.46561611325334    3.00549413501184    2.07663875211908
H        -2.26830474045604    3.87328168015967    2.70530824792879
H        -2.57461483771490    3.35646811548965    1.04861392610074
C         2.33164944816446   -0.33450779012736    7.41146402675485
H         1.64082955505966   -1.06951279554113    7.83261773995692
H         3.34586386874841   -0.71585908582309    7.54736287476519
C         0.48061512396171    1.72347281967559    6.43311865685006
H         1.16987095645769    2.46637706255463    6.02802175317123
H        -0.52833331737333    2.11667105994768    6.31233225528636
C         5.61069830396189    2.80539618025917    6.63160727200320
H         4.98517566790990    1.91730220489047    6.74465646796908
H         6.16708164280283    2.94418825241143    7.56058702556434
C         6.57387835357901    2.58924485103224    5.47084948752417
H         7.19060602227896    1.70725040216944    5.65460017305004
H         7.24024640746131    3.45139190538444    5.38609005400246
C         4.16744964673785    6.05962801265185    1.40930056778874
H         5.01712109930674    6.16075492845212    2.08816087541050
H         4.54367578983165    5.78549945488769    0.42165570408737
C         4.73387441867049    4.02248648826604    6.35841320950928
H         5.36022393322934    4.91639226096898    6.30854215711538
H         4.01953555053956    4.16530484785531    7.17116763777382
F         1.02448581233134    3.77066632607025    3.84602446041046
F         3.98138620844002   -0.43748624538547    3.11652453362928
F         3.10955757124121   -0.21136773448685    1.12525750884422
C        -0.62623292685504   -3.56125104158864    1.89608540479830
H        -0.43647818856597   -4.55662053948008    1.49046638793038
H        -1.69133249769038   -3.34975362720759    1.77405140563793
C        -0.27180811359616   -3.53198087562241    3.37977103248924
H         0.77665020308979   -3.81247647718785    3.50464964471188
H        -0.87927651958940   -4.26005078376230    3.92147488039881
C         6.60963650846679    2.40838774970172   -1.40879323099759
H         6.43786042338625    3.35227969241045   -1.93188811640692
H         7.26398796315536    1.79747045710894   -2.03327210676084
C         0.75932567623941    1.53840275177317    7.92172957992232
H         0.64447486388249    2.49745243023160    8.42829039860978
H         0.02824498859157    0.84510711277316    8.34645861988515
C        -3.60333857449805    1.78575285704850    3.95414854183720
H        -4.52494548919088    1.28877672894209    4.26610452777599
H        -3.42184734733742    2.62011916544999    4.63419062685349
C         2.16425354730377    0.99170857274479    8.14517601473239
H         2.34871213891915    0.85282421913813    9.21228923876666
H         2.89331794923547    1.71203408907631    7.77045762231600
C         0.18673218990407   -2.52068042725854    1.13144756069074
H        -0.09662388377951   -2.52614198305900    0.07748961125641
H         1.24931216645154   -2.76274467555925    1.19310992276919
C         5.27479124668925    1.69650011372488   -1.20191870160030
H         5.44480084005975    0.71522350439371   -0.75502868534379
H         4.78314300820217    1.54400743334966   -2.16425941437815
C         3.42964188041799    7.39293449390192    1.29333138107856
H         3.04388273822828    7.67864028960516    2.27349555203130
H         4.12041585580717    8.17095460480245    0.95978219061967
C         1.30405545255080    6.17255195766177    0.76309887215481
H         0.49391769382433    6.06509481182952    0.03943649512675
H         0.86013149111991    6.44844217268387    1.71884582572894
C         7.28895173733770    2.69239738879426   -0.07131121485780
H         8.22253073296489    3.23390823363549   -0.23776644036719
H         7.53331877429360    1.74732728902235    0.41933809263420
B         3.16786795923376    0.29375114027893    2.35378292941832
C         2.26751997780627    7.26636933063682    0.31201982177957
H         2.65660250297178    7.02610703807061   -0.68190493226900
H         1.73826439702237    8.21794517050311    0.24093975252343

