68
CSD_code = DABXIO | q = 0 | S = 0 | Stoichiometry = C25H38AuO2PS | MND = 2
Au       -0.16087097711758    2.61920173169098    5.61845361613846
S        -1.34921789896946    3.34641263935556    3.74876050818673
P         0.95597448150549    2.00474677869502    7.50169683753968
O        -5.83350019072371    7.05884979853296    7.04989309343301
H        -6.57754247032167    7.64623133958220    7.25098358731846
O        -6.56762769502444    7.42723708997762    4.97651853577144
C        -5.76970973223458    6.88592573700333    5.70797103246755
C        -4.67821122688343    6.01348443121264    5.27618413117003
C        -4.51039565057110    5.75899187940065    3.91021522612665
H        -5.19700249923207    6.21644250259879    3.21387222974426
C        -3.49569571306788    4.94709111260117    3.47018158620843
H        -3.36111820215330    4.74748019960251    2.41824807723515
C        -2.60843942269642    4.35725855910856    4.37963699591747
C        -2.78108665011109    4.61345239472673    5.74246498279084
H        -2.09912476355447    4.15962028926625    6.45392654007255
C        -3.79678337741322    5.42675779283131    6.18593318695302
H        -3.91895377640822    5.61728479394105    7.24134166394388
C        -0.22968807408023    1.85996863101521    8.91770800665591
H        -0.66648661661156    2.86500618770946    9.00627338617666
C        -1.36129082146056    0.90557332173075    8.53003087737001
H        -1.78428913029166    1.20730918444281    7.56632307125361
H        -0.97698577710902   -0.11178027276355    8.42045844804268
C        -2.44411769515555    0.91625554007994    9.60535592933945
H        -2.88089913715473    1.91530248360306    9.66962925840078
H        -3.24003266445256    0.22142206251343    9.33238576968125
C        -1.85379998002911    0.52992037422841   10.95872744387229
H        -1.47528977579262   -0.49396569114286   10.91074897142292
H        -2.63023997119804    0.56244928899359   11.72464964080487
C        -0.71528127131540    1.47331754977062   11.33613231359541
H        -0.28682430500902    1.17605087569121   12.29538757155223
H        -1.10575175383971    2.48789296289449   11.44434816672684
C         0.37223734921174    1.45932603231220   10.26278642661346
H         0.78897457662332    0.45212978916689   10.19560497281153
H         1.17522605999230    2.14557598039705   10.54276631354506
C         2.17996978386759    3.30653983670549    7.99183111706266
H         2.78517864860545    2.95906947333214    8.83743393974864
C         1.44054768212041    4.58885641043403    8.37824041136125
H         0.84106679864871    4.42781078184139    9.27668120799899
H         0.76524770167084    4.86950340937362    7.56300914009398
C         2.42373115337463    5.72757871078452    8.63952485347721
H         1.86927764930706    6.63315462005073    8.89179571120602
H         3.05308590707665    5.47102830640461    9.49577739804412
C         3.30496068163825    5.97655103755202    7.42104124616235
H         2.68233015499557    6.28366624230237    6.57824879393623
H         4.00991151126552    6.78289465351258    7.63000813852128
C         4.05952658648532    4.70355849783328    7.05569875483135
H         4.72094905595633    4.42184681147628    7.87922103301581
H         4.67763213429046    4.87382070479931    6.17249680350579
C         3.07706278518185    3.57016255326086    6.77912645780345
H         3.62629892903150    2.66602910012636    6.50713720197316
H         2.44338158291024    3.83917505605473    5.92710506517020
C         1.86038560619140    0.37797591850684    7.46708176042987
H         1.13992511765343   -0.34842738260678    7.86965569154365
C         2.14103047157564   -0.00914910426016    6.01252134854564
H         2.84566688809988    0.69824805641027    5.56874047503399
H         1.21416504827325    0.04450721704702    5.43349718090061
C         2.72118117864709   -1.41866650133993    5.94206561876095
H         1.98240327081354   -2.13284708221918    6.31368473097478
H         2.93919196745837   -1.67415860860821    4.90398586489964
C         3.99029107977618   -1.51856553343980    6.78326802610509
H         4.38035331816577   -2.53705055298711    6.74755925950399
H         4.75274813825070   -0.85420287838666    6.37024228433153
C         3.70389587622463   -1.12343723530310    8.22873674453480
H         4.61995534509809   -1.18107784589390    8.81997158634769
H         2.98333426834919   -1.82214939401051    8.66076088339873
C         3.14312686249242    0.29642950769567    8.29506184688903
H         2.95113526016878    0.56651579124348    9.33519983573457
H         3.89049630895131    0.98518605154435    7.89759118923483

