83
CSD_code = DACCUG | q = 0 | S = 0 | Stoichiometry = C43H30F5O2P2Rh | MND = 4
Rh        2.80088588269456    2.72037126399064   -0.17232681333595
P         4.08440516082322    3.15804451858985   -2.01043867766513
P         1.51368084130199    2.54586245166196    1.70692957797184
F         3.09153142075925    7.35785368783990    0.80711392217363
F         5.08462167164186    8.35007867292561    2.33998765998718
F         7.01427472902359    6.70632471362090    3.36855226902314
F         6.90052283812437    4.01126780792985    2.82622493668626
F         4.89190254691896    3.00144185910996    1.28741700279084
O         2.25520115471741   -0.07777442526932   -1.01093542386243
O         2.97803409171176    4.68118105178011    0.26538422270318
C         2.48102139922857    0.99975321483922   -0.67548158534756
C         3.91863539260253    5.13924823957161    0.98901832849671
C         4.02612179798339    6.51966004306232    1.30202184346537
C         5.04055307007243    7.03317546788679    2.08218525256384
C         6.02482518787635    6.20087282882718    2.60861826820995
C         5.96635375239705    4.84125068787634    2.33407546326395
C         4.94455282370048    4.34494888155330    1.55401822371305
C         3.19892068479940    3.79538452748730   -3.46288237230985
C         1.81858790992638    3.63485120096414   -3.49635976314033
C         1.09098135488740    4.08821223003422   -4.58179352321134
C         1.74120058835438    4.70621195283177   -5.63742044097840
C         3.11623182101741    4.88048702024536   -5.60269386576005
C         3.84737425229725    4.43031189774917   -4.51872167462698
C         5.05907062086155    1.75137339123494   -2.63982470478242
C         6.03596552263050    0.38591541984574   -4.35471632114335
C         5.28320626766019    1.48733876744153   -3.98417629579715
C         6.56898516673825   -0.45385980552132   -3.39165391716708
C         6.33998553555606   -0.20049576287793   -2.04831455589449
C         5.58213277747759    0.89254140015059   -1.67470260101450
C         5.35226096636882    4.43740065698581   -1.73333171325003
C         6.63104381619847    4.11012772852554   -1.29478550340385
C         7.51719632636756    5.11055405975544   -0.93624254040830
C         7.13249254208272    6.43940455809059   -1.00315512542090
C         5.85929037360935    6.77017126757586   -1.43954056412091
C         4.96929950395736    5.77547515475600   -1.79838363101612
C        -0.27250265779716    2.82088227198909    1.51079763175154
C        -0.81336021685626    2.65743948056023    0.24050886507839
C        -2.16954680833241    2.83101258607702    0.03231049006972
C        -2.99187574366773    3.17175611490675    1.09383448024998
C        -2.45653361967124    3.34453205368409    2.36073828924195
C        -1.10088002095494    3.17174441228266    2.57319991977097
C         1.62140893371848    0.94818207085859    2.58076677948063
C         0.57087133289920    0.36967202065211    3.28082740637331
C         0.75348753637982   -0.84458582856334    3.91995676574058
C         1.98005589038657   -1.48520027801530    3.86823179973694
C         3.02994904026599   -0.91520781934575    3.16577929533480
C         2.84941580672646    0.29279637297342    2.51948642858790
C         1.96736197422625    3.74209572060635    3.00314583423503
C         2.90799285764546    3.42770916889613    3.97830691168996
C         3.35766728811697    4.40652928681483    4.84701758564784
C         2.88165892711906    5.70291455899001    4.74229199319020
C         1.94720101386085    6.02147640659580    3.76922761788001
C         1.49506877261012    5.04866263502678    2.89791707606003
H         1.32938534104967    3.16178300744397   -2.64942586316897
H         0.01821029187973    3.96555937770733   -4.60490380248316
H         1.17602236564374    5.06220875848333   -6.48603447793416
H         3.61888617761490    5.37291353515353   -6.42238979457837
H         4.91786382855801    4.58275738449543   -4.48063791971850
H         6.20423674757982    0.18169409510685   -5.40202718209480
H         4.86192181019934    2.13067613122368   -4.74276674757135
H         7.15508686735489   -1.31121248695883   -3.68747856714071
H         6.74598776810173   -0.85991956947464   -1.29551960874706
H         5.37737434408997    1.08923548336104   -0.62759943166419
H         6.93142494021938    3.07339253379842   -1.23231307574295
H         8.50833082869874    4.85068457766086   -0.59486007838893
H         7.82285331494841    7.21700228435164   -0.71267052680600
H         5.55511857836209    7.80514850525943   -1.48908959942817
H         3.96726529198472    6.03015515169309   -2.11615886046449
H        -0.14980815689291    2.39973954002288   -0.57899821002439
H        -2.58659498694027    2.70490945534706   -0.95594243925741
H        -4.05091507971882    3.31025704459382    0.93418099454709
H        -3.09847852946012    3.61760905328469    3.18559160652740
H        -0.68047055661976    3.32153364970329    3.55872284254916
H        -0.39177691699458    0.85834018495983    3.31874937645925
H        -0.06761719580245   -1.29344256935582    4.45955615475935
H         2.11592024859218   -2.43218128884550    4.36910948089004
H         3.98551293645182   -1.41617387263501    3.11811372993101
H         3.65870104523736    0.74062884843356    1.95285768809003
H         3.28851596516531    2.41832347866062    4.05492014458894
H         4.08845185322755    4.15762793434948    5.60233318862190
H         3.24187691394912    6.46646462763848    5.41529017610104
H         1.58051884203827    7.03326841581782    3.68066784467284
H         0.78630502245413    5.29953886266942    2.12031243001020

