73
CSD_code = DACFIZ | q = 0 | S = 0 | Stoichiometry = C27H11F18LaN6O6S4 | MND = 10
La       -1.72121928555736    1.81467447912246    3.89111621377817
S        -0.85504618258878    2.22608196882713   -1.10378479980093
S        -2.07195670682628    1.16182890143926    0.30104357288660
O        -2.69530366481859   -0.21253051949305    2.91096380271681
O        -0.33885216404287    3.02657962472463    5.63167576956565
O        -2.81079190940558    3.82606804976376    4.81440681049396
F        -4.31827859953593   -1.56643391288920    1.41875963651742
C         3.43413866753439    2.53966798093351    2.87143646184425
H         4.41255019120340    2.95373333202315    2.68163119765167
N         0.36100299319284    2.38306962640736   -0.06569056266928
F        -4.10017558224001   -3.27229395235859    2.71688666568587
N        -0.94999234320443    1.26907446536004    1.45387710454806
C        -2.56275536877985   -1.44290585488816    3.02408279035240
N         0.89045809623437    1.52441888517767    3.37659134617980
C        -3.42385875567004   -2.31191824099180    2.07397462838623
F        -2.66994187433793   -2.92491208605194    1.14712494327819
C        -0.25695858691571    4.21404128048226    5.99228177062783
C         0.18695231291089    1.88261509122057    1.13274217239356
C         1.23270625191151    1.96983012226409    2.15866310494136
F         1.59109977517546    5.75118899501398    6.08589781675864
F         2.00113052964421    3.69509354863526    6.57371576590148
C         1.81793995214370    1.54798620954642    4.32509117031293
H         1.52510265236767    1.14808612902987    5.28755154226508
C        -2.45972875040680    4.90917794351636    5.32051401717183
F         0.90284230724803    4.92931475438243    7.95211771136990
C        -1.24062407464529    5.20532940123991    5.92785994469820
H        -1.04437668514483    6.19457185457137    6.30319853041695
C        -1.72238385119086   -2.14654968903892    3.88924284278499
H        -1.72255413026943   -3.22317465260768    3.88879889257080
C         3.09854389624071    2.04829851527605    4.12210388717109
H         3.80397428235493    2.06369578412026    4.93683991619915
C         1.07355424507450    4.65466854952189    6.64633179184877
C         2.48907119834266    2.48498770955771    1.86008494663997
H         2.69461307567933    2.83726137998166    0.86226991732762
C        -3.49709540229519    6.04995888127500    5.24376242291289
F        -3.56506619432573    6.77427935453891    6.36658654181881
F        -4.72057511427233    5.56112774294871    5.01435501130035
F        -3.21954356707079    6.90155491365015    4.24564203985626
O        -0.74889057399537   -0.21364106244282    4.86908498109374
F         0.87352757470334   -1.56929047891876    6.36038285619757
F         0.65560343789721   -3.27359419934750    5.06024649293523
C        -0.88174387144553   -1.44389215733541    4.75495024361390
C        -0.02078993317484   -2.31395658510279    5.70419976560982
F        -0.77482794461333   -2.92802067035843    6.63019902321878
S        -2.58439903791550    2.22556543795639    8.88785085195457
S        -1.36727064087352    1.16332786045924    7.48167924124425
O        -3.10359330136172    3.02445910865125    2.14963059161799
O        -0.63205515346597    3.82545962088514    2.96628998033819
C        -6.87533082797955    2.54011341557700    4.91487744980500
H        -7.85354689583900    2.95434651935293    5.10532104021219
N        -3.80104484741060    2.38238942315442    7.85035614931854
N        -2.48981615358252    1.27046294411559    6.32944112753120
N        -4.33214798549361    1.52431785864334    4.40813259011672
C        -3.18624053959757    4.21180954489129    1.78880676641741
C        -3.62711055266529    1.88286427995862    6.65150785537119
C        -4.67350975696228    1.96995317792071    5.62623097751660
F        -5.03486380808182    5.74823222494837    1.69571801286121
F        -5.44446012747514    3.69188873947559    1.20863668802747
C        -5.26026399918689    1.54800514101424    3.46023970873434
H        -4.96814077639617    1.14803645563982    2.49759322128314
C        -0.98364173999684    4.90820672871678    2.45975364750491
F        -4.34724452387534    4.92612180424698   -0.17063615321794
C        -2.20301083623393    5.20357373677227    1.85256457356835
H        -2.39980453209378    6.19260023377270    1.47695042997130
C        -6.54061695976328    2.04864751798353    3.66401461670815
H        -7.24653303752396    2.06419813621502    2.84970092580091
C        -4.51724069218879    4.65173943522189    1.13531053339451
C        -5.92961051848996    2.48530061483395    5.92561240759299
H        -6.13446922236021    2.83759321896038    6.92356123096944
C         0.05326106993753    6.04944333877955    2.53574803635041
F         0.12083585039325    6.77308086774812    1.41245965594582
F         1.27695217197808    5.56125831056987    2.76537981485707
F        -0.22456294859397    6.90155289082177    3.53335732684601

