70
CSD_code = DACGIZ | q = 0 | S = 0 | Stoichiometry = C31H22F12IrOP3 | MND = 5
Ir        9.26061813009500    1.71877936294525    5.07643274210500
P         9.95470677238430   -0.26219665316138    4.19035757567751
P         9.97929154405804    3.84402632294347    4.68883502776817
P         6.82530765994607    1.71612615435604    5.33106894395024
C         8.94285438257428    1.83854969602857    2.98658109377255
C         9.65769390608143    1.53028127156342    6.91815077724685
O         9.95569915893102    1.35331219884636    8.01095040659541
C         9.03793895607480    3.04330282368472    2.28011778471286
C         8.66056824236786    3.13265324770779    0.94623602524198
H         8.74140273135531    4.08157107761715    0.43540571230659
C         8.20044215124552    2.02134157128557    0.26820236496452
H         7.89721579083373    2.09890791495020   -0.76424271655773
C         8.18434611637264    0.79645236088031    0.91087766899565
H         7.89203927843812   -0.09601960737882    0.37704102628904
C         8.56288235081588    0.70957584618072    2.23863083896307
C         8.68740956817718   -0.63435943663838    2.92106176234532
H         8.97688488349556   -1.43266376029835    2.23024408885721
H         7.76170904444620   -0.92107462134597    3.43517973600928
C        10.26737586348349   -2.02686710318597    4.83976929826228
F         9.10351948639026   -2.53774164744546    5.27701564491304
F        11.11746110058534   -2.05433492111700    5.86550723993220
F        10.72320427773348   -2.86539292009057    3.90353525549878
C        11.50321955206325   -0.25316753443930    3.08033127841507
F        11.40258611838503   -1.01984310509547    1.98866671652125
F        12.56903128844631   -0.67422123756334    3.76857853756350
F        11.76312337821060    0.98766942731556    2.66058528547615
C         9.63061375085955    4.26647759846571    2.93869739201007
H         8.95395498689755    5.12696859783215    2.88015444208489
H        10.56413591259842    4.53780851545395    2.43082654861892
C        11.74026351327463    4.55356907003931    4.88439676132005
F        12.62496620722089    3.61864792551258    4.52854215099559
F        11.98771535989150    4.88500304870657    6.15491936243741
F        11.98793168861815    5.63198246740004    4.13032006139877
C         9.16516089378022    5.35496393068467    5.51289403700444
F         9.23620165124176    5.31059795455809    6.84304409557283
F         9.65769506295409    6.53465205864505    5.11916523104940
F         7.86167855517788    5.36009505600135    5.18222413936765
C         6.08928164046451    3.08569433275171    6.28875489495769
C         6.75834077913738    3.48088884268954    7.44275219127711
H         7.69469827119828    3.00541195487416    7.70242888239067
C         6.24469890079344    4.48333973943012    8.24265497601576
H         6.77821100939603    4.78817463068566    9.13004110518277
C         5.05496088898914    5.10173367887105    7.89460355126914
H         4.65504360712999    5.89180314896611    8.51225475115852
C         4.38194257355473    4.70920303738334    6.74999255267646
H         3.45448340101181    5.19064990263834    6.47629893994038
C         4.89101348005850    3.70309647153712    5.94823791977094
H         4.36060426091382    3.41157200209443    5.05282343299903
C         5.90501742325206    1.76600921693489    3.76611120762973
C         5.30713588525493    0.63651411037622    3.22038579940713
H         5.29108436050505   -0.28970775427710    3.77866952999936
C         4.72310818616702    0.70076544144147    1.96769453853425
H         4.25507667420407   -0.17830602902588    1.54963807095397
C         4.74140349927498    1.88430656710620    1.25005176904357
H         4.28783173833495    1.92926259672998    0.27141385049491
C         5.34574677159273    3.01065061604357    1.78611080381261
H         5.36324533917390    3.93340654161404    1.22567255564453
C         5.93286357214716    2.95128995273742    3.03418964823791
H         6.41129454674384    3.82284294308430    3.46052746038170
C         6.05582951489284    0.31434610097569    6.21273658032974
C         4.67869989475993    0.27703888272285    6.41766596314572
H         4.05768717523476    1.07919956914201    6.04460029525240
C         4.11205312462398   -0.78530560603213    7.09523580563660
H         3.04367308383109   -0.81319485388704    7.25118378703206
C         4.91015568567979   -1.81293551907910    7.57584350595219
H         4.46161278789848   -2.64076716398611    8.10414018442513
C         6.28020363007444   -1.77552383331529    7.38146663048076
H         6.90673648430946   -2.57170279214112    7.75310373833959
C         6.85012831451349   -0.71203039744671    6.70427255355411
H         7.92208417939916   -0.67105928328502    6.55183818640881

