53
CSD_code = DACNUQ | q = 0 | S = 0 | Stoichiometry = C22H24MoNO4P | MND = 6
Mo        3.78903114190327    0.17213435422329    9.05078079963292
P         3.44471395031387   -1.97695778600212    8.10121649697302
O         6.74220163569295   -0.19162367030586    9.83673379240836
O         4.83779524472080    1.07505560190198    6.28039006293355
O         4.03530207797410    3.02697513039372   10.20165447227002
O         3.02903814593212   -0.81118362497881   11.88656470499315
N         1.50359330240534    0.34486507398955    8.49722951482115
C         5.64480616514751   -0.06333768427191    9.53505710533959
C         4.39654529670137    0.76721971049138    7.28840778147731
C         3.92156139232235    1.97345320897200    9.76779039283015
C         3.26596434949104   -0.45441765566336   10.82556663542551
C         1.68052038339048   -1.98346110306001    7.55570875053787
C         0.92895204983155   -1.00933944762530    8.45985753918184
C         1.28966608298202    0.98821689481076    7.18876432764548
C         1.66238970749463    2.46455845756158    7.13603133449301
C         0.84182116977157    1.10803906180987    9.57304594573194
C        -0.66942706876431    1.32701489116088    9.44775590151467
C         3.61826964173590   -3.50178036604488    9.08331737598990
C         4.41034757114021   -3.44370198635803   10.22415150701597
C         4.61903437033893   -4.57887870668665   10.98718640379942
C         4.04350197892908   -5.78057557406156   10.61086311212087
C         3.27294947553848   -5.84960746714961    9.46070520777766
C         3.06653403762489   -4.71887683826646    8.69330487705265
C         4.35116939830546   -2.52505262758950    6.62238532493768
C         3.79047317278146   -3.23201836127688    5.56429440161655
C         4.58309266684861   -3.62575836549253    4.50041562986959
C         5.93536170842236   -3.32798446767733    4.48793691691338
C         6.50134914350119   -2.63371012920507    5.54515501921419
C         5.71264328216141   -2.23457526924115    6.60730680265280
H         1.21922428039602   -2.97166137616957    7.64073741952297
H         1.63339263066778   -1.66406124789560    6.51016802997499
H        -0.12208512565031   -0.96843423521459    8.13053554125787
H         0.95348397576844   -1.40910360429405    9.48123788535819
H         1.90680575341133    0.45957001663281    6.45662861544069
H         0.23719536565300    0.87540390087680    6.88294031506955
H         1.69782498770852    2.78110929983981    6.09587841660395
H         2.64521680162864    2.62944258457653    7.57467581240081
H         0.93619512498992    3.08854061789522    7.65072012935854
H         1.33131927788678    2.08063240454465    9.64026400722676
H         1.02981032189025    0.58252705766997   10.51368229939437
H        -0.99303919496904    1.93418529976160   10.28967716734693
H        -1.22254969915571    0.39177014639007    9.48420718528484
H        -0.93326465871216    1.85632380918344    8.53614969316758
H         4.86336185374992   -2.50104652019722   10.50516315465956
H         5.23134110523711   -4.52501471498590   11.87500601511354
H         4.20105032397696   -6.66702174660510   11.20729581445193
H         2.83629246615633   -6.79071211960846    9.15863398036406
H         2.48264966221632   -4.78927660295707    7.78578223586504
H         2.73678359906749   -3.47364593183870    5.55867981823023
H         4.14199226411046   -4.16877660601588    3.67678793146838
H         6.54747515490958   -3.63676288047142    3.65353051420226
H         7.55568827340544   -2.40055621752429    5.53850535590166
H         6.14143398101460   -1.68462258795494    7.43703452516725

