49
CSD_code = DACPOO | q = 0 | S = 0 | Stoichiometry = C24H14N4NiS6 | MND = 4
Ni        3.18856195576577    2.79224903910895   18.22724492161067
S         3.30442304381727   -4.81392214775818   13.68383790789140
S         3.43139806267102   -2.47535690659170   15.51645997122202
S         2.27012506289030   -2.14163313183127   12.85310010867892
C         3.02226771183045   -3.24214742070376   13.99778445585395
C         2.32009723565643   -0.74904129417904   13.87235299212391
H         1.90181526603835    0.16112116235326   13.48277939754257
C         2.83666000088023   -0.87579652615068   15.10735366480334
C         2.95751598443815    0.20945340194638   16.07645680192514
C         3.54512950199028    1.40542444508744   15.64664829616330
C         4.25909838080790    1.63683084428709   14.44080732555628
H         4.41859680648468    0.92137622132614   13.65879427868494
C         4.74733998756158    2.91822807379127   14.51030555031414
H         5.34588625663660    3.43180999913849   13.78388470817500
C         4.31243166642550    3.44553184971591   15.73678629090990
H         4.50902993313488    4.43599354200634   16.11176857429964
N         3.59368660219697    2.55009787681073   16.41648045060345
C         2.49717483687403    0.01987969210930   17.38142644334268
C         1.74822085023346   -1.07951850855636   17.88250966742294
H         1.44879810369749   -1.94482759442358   17.32568374824134
C         1.45072176069787   -0.79176105505656   19.18936361899145
H         0.89149352504879   -1.38961202408874   19.88171759396654
C         2.02627396428739    0.46072959573280   19.46304995781651
H         1.98915458654790    0.98090781019707   20.40442963072493
N         2.65406942765968    0.95064550022638   18.39443141899710
S         3.30430824481437   10.39843063787859   22.77069948742797
S         3.43131312906193    8.05992035414052   20.93802607465221
S         2.26997711222547    7.72613193733016   23.60135599223050
C         3.02259194144310    8.82658000683865   22.45681270748969
C         2.32015540349333    6.33353625182620   22.58216031684100
H         1.90171267057490    5.42339702441406   22.97164056520530
C         2.83674964755543    6.46028100052390   21.34717380515807
C         2.95757711172413    5.37504949760884   20.37805520209296
C         3.54514411206388    4.17909202856292   20.80784207272207
C         4.25911580241309    3.94767104543448   22.01369575894512
H         4.41862728603950    4.66311488941319   22.79572192839980
C         4.74734455787783    2.66628556331812   21.94419639811902
H         5.34588765638782    2.15271322923009   22.67063086919832
C         4.31241705591231    2.13897932711126   20.71770566372517
H         4.50899339479688    1.14851186233002   20.34271703569510
N         3.59370447752658    3.03440197490127   20.03800560344300
C         2.49719457027086    5.56463102252262   19.07306274099253
C         1.74817301962399    6.66398277887339   18.57202313180541
H         1.44876611241022    7.52928301168122   19.12887074085737
C         1.45068622605301    6.37623625524918   17.26514385760545
H         0.89147604333572    6.97407990801836   16.57277148122580
C         2.02629001720780    5.12379199033026   16.99142987118618
H         1.98923766043703    4.60366364578433   16.05002626623543
N         2.65408623247673    4.63387231218036   18.06007465288413

