92
CSD_code = DACRIJ | q = 1 | S = 0 | Stoichiometry = C44H43N2P2Pt(1+) | MND = 4
Pt        0.64795162004254    7.23436690654846    4.76817905599047
P         1.00931993686651    6.35339221761243    6.96736688965837
P         2.33380194816470    5.91396281418022    4.02200770077485
C         0.32785764178687    8.01902331255433    2.91647426260578
C         0.62192172851295    7.47437967231817    1.65343568357215
H         1.07534932115417    6.49303283251651    1.57498247287053
C         0.33628108860395    8.16546003319791    0.50944010583526
H         0.56086780018210    7.73512876309846   -0.45568234189215
C        -0.24398345410882    9.44786374470043    0.55915779823700
C        -0.51800969774290   10.17493643784250   -0.61803173051710
H        -0.27331691166898    9.72498392442153   -1.56901424126765
C        -1.07748696947757   11.41913750910228   -0.55856946979292
H        -1.28663252331595   11.97093356024216   -1.46208734643361
C        -1.38096574565991   11.99040740184518    0.68600357966756
H        -1.81563048619423   12.97803612159655    0.72335439134305
C        -1.12967812685175   11.31143465723106    1.84536725878284
H        -1.36165625282573   11.78280196399103    2.78825534782974
C        -0.56131070154745   10.01822207614677    1.82201624951662
C        -0.27934276000541    9.25914681058371    2.98553972135526
C        -0.60981533149148    9.74551762725176    4.37991097071339
H        -1.44218573429921   10.46134541521766    4.37880280676831
C         0.63604913221221   10.41179076715927    4.97065239442259
H         1.38888249171449    9.64311979189585    5.18877167918364
H         0.41928956876427   10.97435384104480    5.87529212967699
H         1.05263720888058   11.09683096311529    4.23574933769885
N        -1.01494079433867    8.55229856320006    5.17371175243971
C        -1.29689227134104    8.92473611191889    6.56099438680432
H        -2.08427510080752    9.68603238576505    6.60182752370967
H        -0.41019628782123    9.31378183214173    7.05484222963593
H        -1.63702791128077    8.04950093400699    7.11732997237468
C        -2.26521741344043    8.01290190518725    4.61560399259820
H        -2.59974224914669    7.16146576849954    5.20770123757330
H        -2.12984644761738    7.70182338634668    3.58018998481711
H        -3.05227568510824    8.77490116521923    4.64418038963509
N         2.46383975782210    5.58204004257631    7.38045627113699
C         3.72379161613557    6.31292426509613    7.53395269176986
H         3.68268467764681    7.13576524915363    8.24231002484699
C         4.63801664310406    5.16703308514949    7.89009930338031
H         5.49580768136912    5.25436236220479    8.52730352316664
C         4.18785190269665    4.11040267390022    7.22562133406623
H         4.58435364932832    3.11520894379636    7.17745800583442
C         2.99119921551856    4.58996773580342    6.44556721845979
H         2.26510177947839    3.84152853808442    6.13105525101676
C         3.58969494638180    5.46213306755914    5.30091819996408
H         4.41511380595654    4.94242817579404    4.80536380373402
C         4.07018820801030    6.70312173016159    6.07316018248266
H         3.49638038748484    7.59125744750860    5.78229502727958
H         5.12919981954473    6.91129851388223    5.93904667685406
C         0.82431388807222    7.34677887349395    8.48633448274582
C         1.51033611383780    8.55906923053607    8.53305393462842
H         2.09933886198427    8.87408001854114    7.67913761167188
C         1.43948020380429    9.36121999732072    9.65626490827817
H         1.98373566052039   10.29321567139084    9.69058050265706
C         0.66375975294342    8.96667291335207   10.73492543594058
H         0.60555249994300    9.59081040151413   11.61309905955948
C        -0.04312113168629    7.77699471899103   10.68162484673692
H        -0.65660828597189    7.47640036570881   11.51728402968049
C         0.03199942979275    6.96704302384690    9.56107079820308
H        -0.52692024509820    6.04361419290388    9.52349571796030
C        -0.06975638864790    4.90772034644120    7.14982611511178
C         0.10210117888988    3.96539212373519    8.15955922300679
H         0.89439382256021    4.09600582282903    8.88248718711215
C        -0.73161870979860    2.86382857813940    8.21362548860755
H        -0.60431376708280    2.13273055930927    8.99765863783439
C        -1.72793688838737    2.69220962362713    7.26353901938834
H        -2.37399845988244    1.82916136751487    7.31278714586213
C        -1.88913839963506    3.61880481962189    6.24661908637704
H        -2.65527153719416    3.47692440307801    5.49925873608331
C        -1.05883493833885    4.72303704571954    6.19192767359427
H        -1.15590087878125    5.45112909122494    5.39066147923342
C         1.70697127993909    4.31403509478852    3.44513526097881
C         0.35898534086439    4.25828815244576    3.09988160796052
H        -0.23690003446813    5.16312037139765    3.16383414473969
C        -0.20606338707931    3.07134410889738    2.67363207017096
H        -1.25046273995198    3.03584896948705    2.40362967848952
C         0.57222789657137    1.92799921762965    2.59261089017169
H         0.13557747039473    0.99903666736855    2.25997919518209
C         1.91248241033121    1.97469782044800    2.94205399523105
H         2.51690122174302    1.08230259561347    2.88203026291386
C         2.48304087052439    3.16019413489237    3.37050273776519
H         3.52621223463799    3.17855948964094    3.65125996438675
C         3.42318311248234    6.60525648963936    2.74364428497137
C         4.08752886728193    5.80806889700328    1.81965324462847
H         3.93145989298326    4.73879605234167    1.81101608381033
C         4.93206410265369    6.39410500806379    0.89321334730906
H         5.44444993822028    5.77691914725412    0.17097360532773
C         5.11606923653808    7.76724732552549    0.88658651903427
H         5.77326735075622    8.21807709425839    0.15915714720517
C         4.45070259960395    8.56365648798595    1.80526499131944
H         4.58724334255053    9.63418300210969    1.79358601544292
C         3.60442549734493    7.98435670796894    2.73067352581273
H         3.05703699299797    8.59734092806127    3.43689661671485

