94
CSD_code = DACROP | q = 1 | S = 0 | Stoichiometry = C44H45N2P2Pt(1+) | MND = 4
Pt        7.61095356728390   13.28571174572904    4.54996061115659
P         6.80778195575543   12.22000077311662    6.40056053435969
P         9.76752309835296   12.33950822235131    4.97392488529930
N         8.10619054674452   14.44209284904593    2.79863807043955
N         7.55864414227508   10.85009439573438    7.01973675367606
C         5.79625096137487   14.10824846256238    4.14066603033379
C         4.71177073138284   14.35477171289543    5.00221330252790
H         4.77859895972810   14.09574911439433    6.05199186896578
C         3.56025127885546   14.92382430763832    4.53591443942487
H         2.73690061270302   15.11259205647189    5.20929336919935
C         3.41477210812404   15.26408682307964    3.17715246074754
C         2.21816319273268   15.82670428319621    2.68651033729250
H         1.40861903566969   15.99882890479488    3.38054842026303
C         2.08364632887641   16.14356092451902    1.36511973904759
H         1.16621585961256   16.57398913983279    0.99415254012175
C         3.14359255542288   15.90453319060676    0.47831114578965
H         3.02535111782836   16.14972926618005   -0.56652912039564
C         4.31767406477048   15.36374337388988    0.92292390827643
H         5.10950259234324   15.18003631300829    0.21291123858144
C         4.49643255607151   15.03233674384989    2.28471527177503
C         5.68807546221941   14.47070466692917    2.81047099752800
C         6.90611994887613   14.20592088894630    1.95291446190983
H         6.95277861211545   14.87995546629017    1.08737122380369
C         6.85092444297584   12.75349631680161    1.47026401943710
H         7.04551918867696   12.08253736395861    2.31659415404680
H         7.56620852671383   12.55059357878652    0.67732244192521
H         5.85354314508642   12.54283040544899    1.09147042234473
C         9.32713998296790   14.10836782762038    2.06494738269723
H         9.35701100918408   14.63675979703743    1.10524908279289
H         9.39673365007972   13.03834883013946    1.87793962453294
H        10.20017364561020   14.40764023536075    2.64582217208876
C         8.18363281390430   15.86631849408821    3.15320150805572
H         9.03433880910853   16.03607989030310    3.81439017254122
H         7.27061386047877   16.19100198298284    3.65186790059973
H         8.32029289095849   16.47790299942733    2.25406458607339
C         7.52906622818416    9.58257870062936    6.29088299720000
H         6.53026883864629    9.30021244825505    5.96174558519521
C         8.14917280380912    8.63818739275059    7.32726342701483
H         8.59826462822262    7.76481164457946    6.85987218640780
H         7.39323564362798    8.29928822939724    8.03293668049279
C         9.18781076055241    9.55045776342855    8.01137579229813
H         8.96061674129439    9.68889281536497    9.06708746586063
H        10.20437014487327    9.17184978394260    7.92912804879843
C         8.99975464693520   10.86565476764354    7.24727793758111
H         9.33747108001675   11.75365284382041    7.78329397670378
C         9.59662940406989   10.69790998321487    5.83430678325314
H        10.57751509103945   10.21642898854655    5.87587840516558
C         8.53157379918377    9.81233590270711    5.15221171134299
H         8.03050025405141   10.35315128865236    4.33749203685298
H         8.93285021562658    8.87969532946843    4.76094642723936
C        10.60331957700058   13.34229639721743    6.23552825128382
C        10.02734647530230   14.56753037690033    6.55009007974160
H         9.13259818161674   14.87869741302362    6.01652934549137
C        10.58221392138513   15.37201961899643    7.52840905022431
H        10.12805051598679   16.32034371185073    7.77212198414855
C        11.72193371763346   14.95235161778059    8.19362462436322
H        12.15905861189733   15.57454620816818    8.95920764404022
C        12.30764197682081   13.73503958358824    7.87661936464231
H        13.19973787724862   13.41573966429006    8.39364175848729
C        11.75448281006643   12.92795817965960    6.90060679112361
H        12.21520146989938   11.98319203031927    6.64874456678597
C        11.11489447404663   11.97269645731808    3.80142690591108
C        12.20071132158699   12.83398202229592    3.67149073366683
H        12.27441403879349   13.70956817698690    4.30217211387157
C        13.19456221377076   12.56479693024091    2.74804634034773
H        14.03940126628352   13.23122332780961    2.66282916424019
C        13.10764066826899   11.44548117366051    1.93677899885149
H        13.88543285521905   11.23652464636268    1.21897921055745
C        12.01819975373222   10.59639360812671    2.04611692917351
H        11.94392507391708    9.72659568883240    1.41100964183916
C        11.02215480537845   10.86068290408829    2.96790456978665
H        10.17076557347236   10.19942836339370    3.04269942597340
C         5.12469116065532   11.55225749407109    6.26458053137094
C         4.66406940635994   11.19569854450184    5.00241087997897
H         5.29657742232752   11.37279531628781    4.13975678701854
C         3.40706718805856   10.64065879024686    4.85630061177788
H         3.04738752825864   10.36555034327483    3.87652782988557
C         2.60814386350102   10.44373746556226    5.97183096043571
H         1.62387487271131   10.01580839823143    5.85936763694373
C         3.06678784589906   10.79861600076860    7.23038994850655
H         2.43971640904197   10.64694783366765    8.09581080243663
C         4.32604595825311   11.35209429734538    7.38254026930272
H         4.68402909380323   11.63919073476938    8.36033227642747
C         6.89728303475216   13.30544269848547    7.84911810012173
C         6.91222153823848   14.68153504172262    7.64679848621080
H         6.85411326977749   15.06886182889662    6.63538068558554
C         6.99232730806953   15.54211069224521    8.72566562021132
H         6.99726869416075   16.60983296211234    8.56602284780809
C         7.06433904992721   15.03190671423014   10.01199918502402
H         7.12773382414393   15.70206590630704   10.85554055114564
C         7.05683554535868   13.66129899334383   10.21744134287372
H         7.11497537709077   13.26606481890826   11.22040931195396
C         6.97393948904384   12.79602139376787    9.14145762912336
H         6.97644340623936   11.72710640060148    9.29673479273446

