73
CSD_code = DACTIM | q = 0 | S = 0 | Stoichiometry = C29H41N2Rh | MND = 6
Rh        3.74542759862877    1.58543955722359    2.27067930291222
C         3.04001079311474    1.14507963649623    0.41325845419784
N         3.04468267526103    1.95178312510892   -0.66979517313351
C         2.49026103863483    1.30936931009970   -1.74577087440016
H         2.39350815986895    1.76308935082139   -2.71019085710530
C         2.13204800249381    0.07539833896882   -1.32489214586392
H         1.66934957998257   -0.72727656771344   -1.86055628246318
N         2.47687357114427   -0.00999841307156   -0.00119308034766
C         3.53959345206712    3.30825093151926   -0.65086820344913
H         3.86433343916296    3.47882234042692    0.39004104565018
C         4.73404744399591    3.49235634702527   -1.58842017488419
H         4.42329690748041    3.31908526356552   -2.62163964003090
H         5.51148886264626    2.76478582866317   -1.34604292465128
C         5.27735657971624    4.91122150898710   -1.44842502245480
H         5.62704365651297    5.06089413706114   -0.42469592883093
H         6.12890931053773    5.04954288760721   -2.11757005419788
C         4.19112199555323    5.93444358145928   -1.76847271589610
H         4.58429632553561    6.94443949415719   -1.63878637557856
H         3.88879816828849    5.82653265729064   -2.81299966487316
C         2.97693762307386    5.72992557483963   -0.86657468821891
H         2.19600502564957    6.44752296024395   -1.12431162909375
H         3.26270046357430    5.90566229685578    0.17263537971890
C         2.43951302107086    4.30909177891819   -1.00676914395373
H         2.10896282366425    4.14480868174626   -2.03520156099770
H         1.58382765944680    4.15654742909884   -0.34702394826531
C         2.23996505023497   -1.14013574538306    0.86649138436321
H         2.64431988083623   -0.83991278468520    1.84710181051568
C         0.74329712842130   -1.42241702910234    1.00802641084770
H         0.32597605539254   -1.69543127938541    0.03581024386376
H         0.23961959384730   -0.51805782981353    1.35427111451701
C         0.52447839627199   -2.56400842122861    1.99577311039902
H         0.89168758561052   -2.26383218707254    2.97916312986967
H        -0.54289442091753   -2.77223142778920    2.08739493190593
C         1.26410721361629   -3.81852714280475    1.53966695943571
H         0.85152082566498   -4.15682459321496    0.58605920465245
H         1.12093552117104   -4.61967886921163    2.26708268229257
C         2.75353109646558   -3.53114419812718    1.37286777927729
H         3.17887340836409   -3.25088232122477    2.33893988816028
H         3.27110008132228   -4.42780369489528    1.02623310957017
C         2.96990693039146   -2.39306741157549    0.37995081712016
H         2.58649042277356   -2.68708069658355   -0.60005883900545
H         4.03646650548866   -2.18283583873188    0.27340529193726
C         5.88160548935413    1.54351809169976    1.76045183886076
H         5.98338980475003    1.73878133166825    0.69352870296393
C         5.46800048337689    0.27900886263045    2.13398397615485
H         5.30734929776888   -0.45169612284525    1.33976621385449
C         5.71617883440378   -0.35214403685564    3.48411433709909
H         6.75888828189836   -0.68706560571988    3.54522074466685
H         5.08945905902317   -1.24576184919501    3.55947949187007
C         5.39604185852880    0.58128688275407    4.66754505865162
H         5.11483171063671   -0.03117489317093    5.52761558773779
H         6.28379524444148    1.14627835751315    4.95621398687049
C         4.27025235931337    1.54468070807720    4.35676747440597
H         3.35715065210465    1.37056197602010    4.92526313807099
C         4.46616033986406    2.82119718203856    3.85503830091809
H         3.71406154180759    3.57526026261719    4.08732809258056
C         5.80590984058150    3.41151964435099    3.47818817554993
H         6.33911495362465    3.71381218083876    4.38719549809557
H         5.62124411074107    4.32170383290802    2.89966095604676
C         6.69131872113692    2.46329763504133    2.64517523278285
H         7.35630672787631    3.06565489895456    2.02070277633428
H         7.32583543204638    1.86473776755530    3.30061788462216
C         1.85520629885835    2.17791322345980    2.66169229499711
C         1.38317896813660    3.46927416265758    2.40111492208224
H         2.05248321163385    4.21360331620948    1.98138520842005
C         0.08162288028076    3.85217027099518    2.67848631140874
H        -0.24210365948437    4.86220904805077    2.45773097337971
C        -0.80688581818818    2.95154572776582    3.23829885965173
H        -1.82612053287067    3.24492855220465    3.45079796271537
C        -0.36695757274025    1.67369978305442    3.53429808756552
H        -1.04508574241591    0.96170509088720    3.98913735264830
C         0.93700244751635    1.30194561511643    3.25298367553474
H         1.24658932395890    0.29580153612606    3.52082375995250

