88
CSD_code = DACTAE | q = 0 | S = 0 | Stoichiometry = C35H49N2ORh | MND = 6
Rh        1.00855911707534    3.47867753339426   14.13267446330069
O         0.14663281813864    5.27653173488715   14.21926326344751
H        -0.64793314838617    5.36724921425912   13.68911589279308
C        -0.84606979691638    2.82133954991267   13.63355960561832
N        -1.34827657390792    2.55859651245927   12.39928492084329
C        -2.72341735188119    2.56891253110779   12.41849618775317
H        -3.30401042208508    2.39359149112681   11.53621382532698
C        -3.09407448199264    2.83678981143150   13.68874772120011
H        -4.06539454818225    2.94192181368458   14.12744350830712
N        -1.94160089029717    2.97831353468173   14.42160217352188
C        -0.59942084439234    2.13063011850119   11.26752257098909
C        -0.40388070392278    0.75694206540795   11.08100488903127
C         0.31891809126266    0.34070167173877    9.97169853117039
H         0.48034422709744   -0.71268858642452    9.80353327419248
C         0.83789144239829    1.25834973862676    9.07856955832299
H         1.40915402570409    0.91753690344995    8.22766809680993
C         0.61769667254169    2.60797686334360    9.26668549303093
H         1.01946649926345    3.31456594011709    8.55759876632748
C        -0.11691379379477    3.06717290260082   10.35266328655175
C        -0.99571281795984   -0.26571512276348   12.02377741771298
H        -1.38135372069327    0.24642861976719   12.90894907649122
C        -2.17021574985372   -0.97483724321415   11.34255661250941
H        -2.93290052963283   -0.25789827564612   11.04606731984162
H        -2.62049200316590   -1.69370449154170   12.02359726269709
H        -1.83502157483018   -1.50406370692219   10.45369653128699
C         0.04307051446592   -1.28345387732881   12.49725536036482
H         0.90864093839755   -0.77794027519389   12.91814274130493
H         0.37686953118684   -1.91780686868068   11.68045648835940
H        -0.39103829409379   -1.92255251965555   13.26354623291716
C        -0.35561924667251    4.54463334089163   10.53780872491433
H        -1.08185773384374    4.68802584005400   11.34391158524659
C        -0.92734332624138    5.19216695914093    9.27521431864968
H        -1.81786731046847    4.66317745512487    8.94038499195445
H        -0.20191016931765    5.19038427729277    8.46610406453147
H        -1.19748826162954    6.22516725802929    9.48268825180177
C         0.95470573239013    5.20597478636202   10.96458973327052
H         1.28424770539014    4.75809013812990   11.90880957061667
H         0.80843297557085    6.27194611078424   11.12089798502948
H         1.72615111647074    5.06099863570785   10.21173980945984
C        -1.92317926991320    3.13337383400832   15.83728672843026
C        -2.25819994184133    4.35979719104780   16.41560487469690
C        -2.19187305547750    4.47030771282489   17.79956190348967
H        -2.42906368124440    5.41214983978119   18.26894702333815
C        -1.83595373598510    3.39421325383331   18.58477696599662
H        -1.77814303739433    3.50304986830450   19.65794395541560
C        -1.59296779287718    2.16400619433063   18.00264658602077
H        -1.37254620880344    1.31790155803633   18.63314896008874
C        -1.64251024535693    2.00716937134016   16.62616289204113
C        -2.75914401691458    5.53282935600161   15.60714282272808
H        -2.69001654780915    5.29162310196907   14.54262395345656
C        -4.23441729786440    5.78675515063997   15.93630011975239
H        -4.83201916218546    4.89276606922747   15.76456908047923
H        -4.62354660180271    6.58682306689432   15.31007594735722
H        -4.35293783938883    6.07790722049161   16.97697702161823
C        -1.91827605418932    6.78526922488535   15.85421924418794
H        -0.88249072588046    6.57165298051331   15.59560903872372
H        -1.96957030638746    7.10120258761259   16.89242026668473
H        -2.27606511047349    7.60133731062249   15.22950512936614
C        -1.52609671774890    0.63612804827254   15.99701389722722
H        -1.06069911901235    0.74765568905533   15.01421401027490
C        -2.93401972087802    0.05808008856032   15.80258654760821
H        -3.53214838888817    0.68643855038055   15.14687627721379
H        -3.44359247200647   -0.01973053722016   16.76101900114132
H        -2.87300886012881   -0.93517789529990   15.36205968116166
C        -0.68058415415606   -0.34815410174315   16.80329255221089
H         0.26707982798157    0.09841417164588   17.09008909341924
H        -0.47365985610096   -1.23068785922698   16.20083810538260
H        -1.20253076270315   -0.67346534277163   17.70023649218193
C         1.79107525056274    1.60105709642341   14.69078252624533
H         1.04357795808569    0.81213997673183   14.73687595883253
C         2.27889395177433    1.94003808094263   13.42358822150828
H         1.82493684456191    1.43880689483657   12.56826416101389
C         3.71310527518756    2.36910533021582   13.17711729488473
H         4.36107819324582    1.86649040881565   13.89860770452868
H         4.01728311905464    2.02979975117861   12.18393795109097
C         3.90202878044173    3.89569978825601   13.26172730132816
H         4.90693087876626    4.12992843354048   13.63185891471364
H         3.82189776796283    4.32110852700843   12.25895949034668
C         2.87643065164338    4.56568699783124   14.14631662983258
H         2.64072996935255    5.59009476766137   13.86781261395600
C         2.58970286501373    4.17655855742750   15.43742970201552
H         2.09831141685838    4.89720109974347   16.08830685018269
C         3.31531605510187    3.04934727523499   16.13533587501787
H         4.33001038044270    2.98092474027029   15.73867597647657
H         3.39950624279651    3.28111074761947   17.19965299260269
C         2.58654668222334    1.70466034947304   15.97439649236848
H         1.88828017269204    1.58972477568488   16.80812249329798
H         3.30347028643511    0.87564831239556   16.03434257051603

