58
CSD_code = DACTOQ | q = 1 | S = 0 | Stoichiometry = C21H33OP2W(1+) | MND = 9
W         3.16126880780857    2.21460402655088    2.97395448360691
P         1.58178495223358    0.35591870860785    2.85983441447889
P         1.41255826628534    3.81144187052891    2.40108750780392
C         2.47300880737234    2.22367546016591    4.92466478021620
C         3.62449526597905    2.89738389827907    4.87359231278479
C         4.65325903309787    3.45360889909828    5.70553306942560
C         5.14722462941241    4.74195807743022    5.47567053771682
C         6.13304222566817    5.26956859885567    6.28151659131711
C         6.68420297084955    4.52709980258475    7.32288455218203
C         7.75210990149884    5.11535510684896    8.18698096530304
C         6.20932698948052    3.23809922263619    7.53753141061458
C         5.20552632880853    2.70811340537282    6.75286143402712
C        -0.16729745491973    0.46045505632844    3.38606057565759
C         2.16047664775359   -0.98254587805860    3.96361436670720
C         1.40593214573554   -0.54118229605096    1.27440093805923
C         0.09334842371228    4.12290093947004    3.62643750325764
C         0.47909119737189    3.57960604494072    0.84386738339559
C         2.04266549100774    5.52301408596866    2.20065082486600
O         1.50194563378107    1.95085148380104    5.78923884760889
C         1.66332045502487    2.44768352186405    7.11939150280793
C         3.94595031374060    1.63334091157894    0.87844391680890
C         4.25433710063270    3.00441703398314    1.01925717777058
C         5.13458721457464    3.15491249354418    2.11275533282391
C         5.40071435528468    1.87112486167003    2.64090022100002
C         4.66415967539770    0.91527673600318    1.88744571468736
H         1.00536998641713    0.12339480326393    0.51117633136359
H         1.21840869638564    6.21338694501725    2.02275744276677
H         2.74307696637291    5.58309066828377    1.37030077166043
H         6.49075057067468    6.27263328571933    6.10052083500727
H         8.19354606610553    4.36182377247565    8.83339093736626
H         7.33372218997417    5.90320910205699    8.81319109001735
H         8.53632076350919    5.56117119012768    7.57798411800364
H        -0.60399974510596    4.86359340141601    3.23519114896897
H         0.55464425390607    4.50385393044261    4.53672375544780
H         3.19661891501237   -1.22958758583881    3.73574235916830
H         1.54226337087524   -1.87275793460520    3.84982887372481
H         4.85882394566629    1.69797971503382    6.92409635695036
H         3.45901520383278    1.19196456570363    0.01831024528458
H         3.97167070666926    3.78397720559771    0.32319910273365
H         5.62021177628961    4.07028183264252    2.41334803206375
H         6.13937546057888    1.64660517925818    3.39989001918041
H         4.82329867370873   -0.15561313787900    1.90249648306153
H         0.71043393475187    2.29726121265650    7.62189842313456
H         2.44778071235109    1.89826526610381    7.64384121374234
H         1.17522517911336    3.50472681722549    0.00970372469653
H        -0.10147467569109    2.66094868520914    0.89859868779730
H         2.37432523750783   -0.91527018359097    0.94936939688684
H         0.72663047255812   -1.38250303144956    1.40853567531319
H         4.72650664343657    5.33156625004741    4.67240442500436
H         6.62953936921168    2.64129945426972    8.33362811877436
H        -0.60141854323431   -0.53933852691596    3.38686931201545
H        -0.73182912312184    1.09456925933879    2.70590713250002
H        -0.20789103729747    0.87209900334868    4.39194700961114
H         2.10215646277933   -0.63096256168651    4.99276989369600
H        -0.43689016309732    3.20468740123090    3.86215668063543
H        -0.19014215317182    4.42345966811413    0.67991112435211
H         2.55907319300325    5.80964468804653    3.11637926232231
H         1.91921731244982    3.50945758734566    7.10585565181816

