62
CSD_code = DACTIK | q = 0 | S = 0 | Stoichiometry = C24H30N2S5W | MND = 7
W        -0.62959508648983    3.92918833904998    3.20685648103071
S        -2.66292019478252    3.74657934028148    2.39494590106512
S         0.04508054769619    6.02777101888845    1.94570159215954
S         1.94718733380988    4.54660744358981    3.59707099540268
S         0.44307771510986    2.75438415769500    1.26157556600692
S        -0.02776378480867    1.58556928732926    3.85225508975924
N         2.54005572832152    6.81921271756094    2.37028988890929
N         1.07276703534548    0.23032979134032    1.83225570407760
C         1.61107751310245    5.89800758554304    2.61451696308390
C         2.25075495343154    7.96861261507889    1.53719898854687
C         1.65229922210032    9.11034926443117    2.35332659005804
C         3.86595558483965    6.71847323872337    2.94479178796559
C         4.79894214534083    5.90580095771638    2.05181968977087
C         0.55750808370900    1.37717476734174    2.25537028401688
C         1.14700377363144   -0.92101710398138    2.70929908250514
C        -0.14156728017007   -1.73625687171533    2.66316500664648
C         1.57346593206537    0.09706138962587    0.47870923013347
C         3.03378273477725    0.52928194877810    0.38641199894294
C        -1.06710072320498    4.12179516176215    5.28730607786179
C        -0.86630621390582    5.30774870073007    4.83011734561983
C        -1.47137976722313    3.32010498632546    6.40733368838514
C        -2.33310852412170    2.23953645211995    6.19939337424246
C        -2.73415948266882    1.45784548636775    7.26412136306721
C        -2.27293766453542    1.73291040181164    8.54242822756513
C        -1.41662387885964    2.80153225669312    8.75530632094065
C        -1.01834676025996    3.59714355331297    7.69855853504734
C        -0.80199298704145    6.72541458752543    5.03832809841699
C        -1.65624623877120    7.57110209046270    4.32371271977706
C        -1.56759138334788    8.93925136177448    4.48427952657377
C        -0.61810576598227    9.48309429456526    5.33744555973160
C         0.24019910295167    8.65071578862509    6.03747405630314
C         0.15122614199681    7.27917218940359    5.89585466625960
H         3.18365320381119    8.28245986887660    1.06397006891959
H         1.54601001022669    7.66523044882922    0.75936601840517
H         4.25094021371418    7.73107781834858    3.08094728797671
H         3.78509799500708    6.23760514939551    3.92291042973394
H         1.99780692001302   -1.52866995909702    2.39455388298141
H         1.32184789050939   -0.56875686399701    3.72904725895077
H         1.46116682599048   -0.94654427865773    0.17864823058320
H         0.96360528099233    0.72115032350427   -0.17949942041900
H         1.46811531790716    9.96570993752207    1.70999752731289
H         0.71048974126700    8.79754037688222    2.79613177270939
H         2.32749672877117    9.41010688668417    3.15166949977574
H         5.78917757156489    5.85978997562992    2.49568496961337
H         4.41727296712792    4.89388177252568    1.94550051038170
H         4.87625822098268    6.35535829625192    1.06450910786117
H        -0.05661884829833   -2.59699752716572    3.31988934409189
H        -0.97713264625768   -1.12607179075402    2.99538934987160
H        -0.34266500634558   -2.08418897535590    1.65257550951956
H         3.38892893336756    0.41645385151621   -0.63369466770992
H         3.12829261288033    1.57292919877706    0.67472698434593
H         3.65702291818529   -0.07207933602665    1.04439211927613
H        -2.68711391769259    2.03972903876208    5.19413459965072
H        -3.40508308182187    0.62746858865364    7.09919867738831
H        -2.58164435203288    1.11521944534368    9.37301632256510
H        -1.05985318373214    3.01670601256149    9.75229055227797
H        -0.35284969846202    4.43293650770954    7.85878155233699
H        -2.38004395177974    7.13169426289940    3.64840649721099
H        -2.23329638916827    9.58791164953177    3.93422036476076
H        -0.54423646785250   10.55450766642497    5.45128907839783
H         0.98355994487870    9.07326235951842    6.69817591578058
H         0.82495643410754    6.62508209628908    6.43145025565488

