93
CSD_code = DACVEI | q = 0 | S = 0 | Stoichiometry = C38H49N3O2W | MND = 5
W         1.76217048101324    5.20276376921337    2.42653709561845
O         3.13472750094280    4.20363855531881    1.47345845124364
O         2.56803841227694    4.17036548421101    3.89149683878312
N         1.36393951902232    6.39150677626625    3.98316607282238
N         0.13966878753971    4.07062547970724    2.40216461279217
N         1.55175970455112    6.33061378587363    1.04821692327553
C         4.13708749265141    3.63233444932824    2.24616298957834
C         3.33977295692489    3.08058009345590    3.51944194719878
C         0.81093713305845    7.71026121495263    4.25859269646282
C        -0.26328720332003    8.01435163803255    3.20920262017956
C         1.92785512869125    8.77221576276151    4.18924601871691
C         0.17670312064467    7.73712749900138    5.65952639231039
C        -0.86015848078932    3.84575825950163    1.36586932667889
C        -1.67564101975339    5.13757443791936    1.17090639418970
C        -0.10811011079651    3.50446771396167    0.06691175365863
C        -1.80162257926753    2.69411606259302    1.74074685501651
C         1.85348582590886    7.11378633427856   -0.10173064983310
C         2.88105191955264    6.34367694354597   -0.96268809533419
C         0.59727634547248    7.39465885356236   -0.95470800973818
C         2.48062399123705    8.46931812133392    0.29944203077630
C         5.06850315977030    4.73386948169841    2.76749220469711
C         6.36448112400396    4.47787439475821    3.20586829809898
C         7.13990515118565    5.49405358616500    3.73481533263785
C         6.63679240665816    6.77983847801651    3.84189828730907
C         5.35225344568095    7.04857535543186    3.39998603738187
C         4.57468136339678    6.03417028173289    2.86313110256773
C         4.95706688861992    2.65732467635056    1.41057744692291
C         4.97615173048993    2.86044676244175    0.03219740448907
C         5.72404450203333    2.04690710850846   -0.79705062333207
C         6.47613623885103    1.01420931381098   -0.26347428366016
C         6.47153914995816    0.80935125242298    1.10442721467152
C         5.72381768274198    1.62514365699104    1.93728683630718
C         2.37011448067599    1.95789098623839    3.14874101743077
C         1.52878335269630    1.51530230763375    4.17075729238739
C         0.59671907927472    0.52114105980538    3.94623487366188
C         0.48459997137287   -0.05180752750301    2.68919976525179
C         1.29860194595825    0.39514921442848    1.66440521202615
C         2.23017514390007    1.39882561011727    1.88558229068877
C         4.22843995614506    2.65210272419898    4.67813146655351
C         4.71963402708205    3.61922872931663    5.54815091346198
C         5.52388268557745    3.26907411834789    6.61721851588162
C         5.83946652921994    1.94117433323272    6.84440825354031
C         5.32547599111346    0.96581522295382    6.00657640096953
C         4.52242530161835    1.31556378738297    4.93550683642274
H         1.79928883564934    6.05618114248810    4.85105379000464
H        -0.13555077444582    3.59388179508324    3.26696336327013
H        -2.36558148530565    5.04793437212421    0.33526480303657
H        -0.97299868610961    5.95030828917203    0.98993813056179
H        -2.24486507468218    5.35679770018663    2.07221619090708
H        -0.76197832466916    3.57511500066393   -0.79960030144929
H         0.29279400299896    2.49497838659452    0.12593421305370
H         0.72630398912002    4.20864786751225   -0.02890454144272
H        -2.50577912742474    2.50400121729669    0.93402506061093
H        -2.36661414608994    2.94045877778339    2.63838901047699
H        -1.23166118115204    1.78616709832028    1.92669357928637
H         3.21148158567083    6.94499100141348   -1.80736418771870
H         2.43374115891723    5.42375125944504   -1.33303877914581
H         3.74099513314405    6.08553080326608   -0.34436518051843
H         0.86477661011034    7.95856579086040   -1.84574285057528
H        -0.12591579268291    7.96977930024090   -0.38051988984876
H         0.13559004847807    6.45783041599513   -1.25489172915108
H         2.74839389132467    9.03862942911340   -0.58825308415532
H         3.37899663786595    8.30110583407495    0.89143533235889
H         1.77320914304557    9.05184138623677    0.88497261873086
H        -0.59923085258439    9.04629623393020    3.28074811171701
H        -1.11345680383841    7.35115003001199    3.35437699541618
H         0.15711447975869    7.82356315676658    2.22185668983544
H         1.53372297868411    9.76788461940814    4.38011709911494
H         2.37840599913191    8.75005046016975    3.19918046457924
H         2.69588873500399    8.55541244543611    4.93025854582615
H        -0.31480187642497    8.69032461077953    5.84037202579268
H         0.93453139855618    7.58897064598052    6.42724759198749
H        -0.56057387053994    6.94150544664098    5.74444982170313
H         6.77527787660248    3.48345508608190    3.13208436084946
H         8.14304192483193    5.27671682566546    4.07051320248781
H         7.24313398084136    7.56886149216978    4.26107513891815
H         4.95419690281383    8.05090736215894    3.46954754638096
H         3.54835874379333    6.25751667621692    2.48312255830889
H         4.37853077307342    3.66111388309364   -0.37831371598680
H         5.72129766244489    2.22186318409358   -1.86320567378241
H         7.06189414554687    0.37531396569124   -0.90802085897127
H         7.05654612588717    0.00861669125904    1.53375239747766
H         5.73880061528644    1.44313122563760    2.99901484108594
H         1.62159336914845    1.96090318438278    5.15160750555897
H        -0.04103177566919    0.18824201160637    4.75277093802772
H        -0.23514116769954   -0.83817901557317    2.51146631393235
H         1.21321464514397   -0.04133732832450    0.67902281822500
H         2.84632176157973    1.72779883660053    1.06440476561146
H         4.44595705334211    4.65274247190403    5.39171779390666
H         5.90100570812696    4.03727926448641    7.27688186650158
H         6.46843088184741    1.66489427397430    7.67801533945407
H         5.54576342896841   -0.07610971435018    6.18997035700743
H         4.11101047580680    0.54094895831202    4.30312924842831

