72
CSD_code = DACXEN | q = 0 | S = 0 | Stoichiometry = C32H33N2NiPS3 | MND = 4
Ni        0.45072800493233    1.47779644001719    8.11538092671509
S         0.74147039482691    2.19744780404354    6.05636532987024
S         0.68167163578948   -0.48225622996574    6.99191031143905
S        -0.58155663395378    0.55751007358842   12.35922858076663
P         0.05685518987063    3.41652105652720    9.01522519884683
N         1.10541670400359    0.11324168776355    4.41741234275079
N         0.32775575803051    0.67968396207469    9.75918861403560
C         0.87842009953172    0.54418326263222    5.65342800622222
C         1.27064268157293    1.02797577068635    3.30806607700014
H         2.12387909259440    0.68455784384350    2.71490962450117
H         1.50051301250538    2.01738582844757    3.71160606068050
C         0.02101076345038    1.11539065653681    2.42712078551597
H         0.24588759605184    1.78437894790109    1.59428192780444
H        -0.20646243748582    0.13251387650333    2.00810959313119
C        -1.19851202191268    1.63678260295734    3.18391101187084
H        -0.96629753682049    2.61315297699348    3.61406947624132
H        -1.43366958805469    0.95927997647620    4.00749016963572
C        -2.41229692486502    1.75588760580605    2.27143207361015
H        -2.21005268417879    2.44558303122811    1.45468877214299
H        -3.27071415470916    2.12452013450238    2.82716169890069
H        -2.66926300056633    0.78773124638928    1.84627834181591
C         1.28820282702975   -1.29924802983647    4.12919789197849
H         0.69601421541459   -1.55372540179817    3.24650049424935
H         0.91337229997456   -1.86863158855834    4.98372366096151
C         2.74448998507562   -1.60700193493624    3.89331176116591
C         3.21337058384168   -1.93807676900483    2.63071624846221
H         2.52269966263148   -2.01163862633603    1.80177037812912
C         4.55930915405158   -2.18693716077084    2.42367792749182
H         4.90596016086577   -2.44901690388786    1.43418688522627
C         5.46688713190013   -2.10206373119645    3.46984576499729
C         4.99198334847039   -1.76617333580424    4.73373940257572
H         5.68443947761213   -1.69941279535683    5.56035642326743
C         3.64980981899496   -1.52221167759711    4.94516642554490
H         3.29586878890312   -1.26980691341604    5.93350706187242
C         6.92769002485347   -2.35297813415464    3.25431321193752
H         7.48472695361944   -1.41987087241989    3.34119551070954
H         7.11131168879784   -2.77225541488492    2.26835042576025
H         7.31238919732382   -3.03977710440451    4.00613396006203
C        -0.09200600508097    0.66315075896273   10.86597430284015
C        -0.20895483702418    4.84631040418052    7.92037775460387
C         0.90675139189317    5.35716077478649    7.26084772101877
H         1.87744281129616    4.91570359031276    7.44742475540429
C         0.76940201539175    6.41212861907121    6.38041859012045
H         1.63630057701530    6.80788617587613    5.87192113842507
C        -0.48357465580471    6.95747072318829    6.14525545111077
H        -0.59254359581015    7.78015319872565    5.45401007702649
C        -1.59622692306448    6.44433784950071    6.79058418930055
H        -2.57248581295795    6.86731417190794    6.60336959522901
C        -1.46486658860864    5.38659086500638    7.67387108564643
H        -2.33362092886438    4.98239638803987    8.17452572262992
C         1.23124038044036    4.07986610261228   10.22839507366764
C         1.14477271661023    5.39859380093296   10.66679282618973
H         0.38839094893661    6.05479498288195   10.25742087961583
C         2.03547343274583    5.86449803734683   11.61606143644528
H         1.96623748608777    6.88577924586938   11.96162848338418
C         3.01555165613789    5.02544058916200   12.12367918715673
H         3.70639080484821    5.39464929230713   12.86718855333068
C         3.11499694557452    3.71920537282938   11.67395545821903
H         3.88400039434878    3.06894116783773   12.06317238168862
C         2.22679198268515    3.24640499622286   10.72474183028087
H         2.29288504360501    2.22873336398748   10.35832379046997
C        -1.52603998416499    3.23796602919763    9.89048714795934
C        -1.85231816390584    3.87357612392521   11.07960891745364
H        -1.14587452091172    4.54020059167912   11.55223756284166
C        -3.07907893394453    3.62337909897924   11.67121487607113
H        -3.33001152331961    4.10554446227685   12.60439380598486
C        -3.97441917917162    2.74598648279524   11.08353482041591
H        -4.92354353095318    2.54719562020660   11.55861785597265
C        -3.64797464682303    2.10392777943343    9.89845081602726
H        -4.33935621790502    1.40530139157015    9.45116156506349
C        -2.42451287806900    2.34601227609336    9.30735502663147
H        -2.12777093122259    1.82555751128579    8.39423896367069

