41
CSD_code = DACYOW | q = 0 | S = 0 | Stoichiometry = C14H16Cl2N4O4Pd | MND = 4
Pd       -0.00002062032317    0.00002471724261   -0.00000431761468
Cl       -0.99137066435174   -1.10498099055027   -1.74563282507724
N        -1.26660799349428   -0.83734673434702    1.25736311975261
O        -4.96343754313195   -1.99524558771734    4.20188621503724
N        -3.93318312267561   -2.58900123906304    3.97493072142065
C        -2.69414614923480    1.07147520714035    0.85025937750516
O        -3.60747847333429   -3.64505276209181    4.46902866311843
C        -3.33021978216184   -0.77677252348697    2.43217806668059
C        -3.01314969859080   -1.98503124350345    3.03491607531408
C        -1.81381921845563   -2.61420853537119    2.73578569552932
C        -0.95503437626602   -2.00558693405188    1.83225175440290
C        -2.42375759788948   -0.22551231571143    1.53843378552714
C         0.35272087863998   -2.62174112881166    1.45932653456934
H        -4.26304560117463   -0.28746990055189    2.66284569241280
H        -1.56690811364643   -3.55433998027777    3.20265746144699
H        -1.91106111810523    1.79038274105512    1.12053835875039
H        -3.66081724526752    1.47310282090362    1.14106050503422
H        -2.68377240022812    0.91005038531653   -0.23461751500445
H         0.37178660750549   -2.79266734847296    0.37602147006574
H         1.16334210765538   -1.93648897743286    1.73574555167981
H         0.49786147650673   -3.56873242672587    1.97160916028940
Cl        0.99138161829324    1.10496729834935    1.74563390271903
N         1.26660667718499    0.83734821151746   -1.25736335058970
C         0.95503473644232    2.00558721004008   -1.83225297829566
C         1.81381982224973    2.61420819890906   -2.73578660148129
C         3.01315078471361    1.98503114844334   -3.03491501226106
N         3.93318769525354    2.58900333211447   -3.97492498976681
O         4.96343726362836    1.99524191330618   -4.20188773526571
O         3.60747833832809    3.64504898713742   -4.46903224411814
C         3.33021976016269    0.77677201693073   -2.43217699595763
C         2.42375692696276    0.22551210658674   -1.53843268475166
C         2.69414765774664   -1.07147539608321   -0.85025847149565
H         1.91106255702488   -1.79038318672121   -1.12053774928347
H         3.66081909011419   -1.47310252771749   -1.14105933724674
H         2.68377346156402   -0.91004958683871    0.23461857646045
H         4.26304608210836    0.28746993246838   -2.66284385090233
H         1.56690871584014    3.55433962268657   -3.20265834316027
C        -0.35272097814716    2.62173943033412   -1.45932721688912
H        -0.37178746548913    2.79266608013047   -0.37602252518375
H        -1.16334204937684    1.93648744429786   -1.73574594285483
H        -0.49786204657988    3.56873052061880   -1.97161000051757

