97
CSD_code = DADFAS | q = 0 | S = 0 | Stoichiometry = C53H37IrN4O2 | MND = 6
Ir       -0.00067525550513    0.00063112325904   11.66250623998000
O        -0.53141358255538    1.37596102050851   10.04816205853347
N        -1.75360182791693   -0.99736751002408   11.73421013379382
N        -2.98561800241090   -2.67833736935569   12.51563582285656
C         0.44614751634828   -1.37925963461558   13.06334191023384
C         1.65358419055615   -1.57796782798183   13.72554863148450
H         2.45737085872028   -0.86555002392621   13.60144231852582
C         1.86316812494458   -2.67982089122550   14.53781072104884
H         2.81309421926695   -2.80639032121356   15.03871971982937
C         0.87057531534667   -3.63522763700478   14.69917901306901
H         1.04829048862261   -4.50590023922387   15.31355077375999
C        -0.34458292533790   -3.47621312300173   14.06540052195396
H        -1.10686031858491   -4.23371077157277   14.17300027054087
C        -0.56500749075155   -2.34968360873129   13.27321441271430
C        -1.77423235687056   -2.04798488726927   12.54989475676291
C        -3.46963745622973   -3.70736952742739   13.34804557826950
C        -3.48613988520938   -3.52976791688649   14.72766814183323
H        -3.08920269302477   -2.61851247391187   15.14955149589799
C        -3.99916293925689   -4.52479916773995   15.53844259440423
H        -4.00883022007417   -4.38919244052575   16.60932141571525
C        -4.50481330889231   -5.68829324903344   14.98029076192900
H        -4.90699613701925   -6.46156482289933   15.61703305447348
C        -4.49522524444463   -5.85833931662719   13.60624864824767
H        -4.88726884399673   -6.76475613010134   13.16994525966195
C        -3.97948483577998   -4.87038550502241   12.78558412964834
H        -3.95925176914499   -4.99787655521668   11.71358040407790
C        -3.77087360941236   -1.98932964263815   11.61249444468259
C        -5.08148926130653   -2.16997590150849   11.20062770849527
H        -5.68637784211467   -2.97674489342282   11.58621109476726
C        -5.58098592710056   -1.26752674534459   10.28185142027671
H        -6.59633714786411   -1.37858690273834    9.93193315147520
C        -4.80677619197884   -0.20934081052099    9.80248131306414
H        -5.24238274068016    0.47656219941257    9.09143574807686
C        -3.50762561617507   -0.01379687359911   10.22167909602277
H        -2.91672411560196    0.81619840514672    9.87369027880141
C        -2.98024498158401   -0.92250144712836   11.13301183235919
C         0.00004451332888    0.00009733245405    8.17413273815630
H        -0.00001597775519   -0.00000866807365    7.09596090033214
C        -0.46835456391144    1.15536119714603    8.81216984844105
C        -0.92899913277004    2.27186282705243    7.93101322697294
C        -0.66878173512104    3.58043772023797    8.32712125176871
H        -0.13929240390129    3.74588813054074    9.25440095684582
C        -1.08007588469153    4.64465806150247    7.54739617763881
H        -0.86337850606978    5.65683493165233    7.85776659534916
C        -1.77383254961779    4.41373699623699    6.37095555631999
H        -2.09851187227389    5.24414704165448    5.76069200246536
C        -2.06058215852183    3.11507710060193    5.98376893159456
H        -2.61721173949927    2.93336443839232    5.07537425397259
C        -1.64062565703157    2.04794800076932    6.75701796744205
H        -1.88556312823613    1.03890503573155    6.45845599422549
O         0.53188246506112   -1.37528960958244   10.04850240148602
C         0.46855183701093   -1.15502051241592    8.81239974419386
C         0.92905626209526   -2.27156295405591    7.93112465601234
C         0.66879197121406   -3.58021057292927    8.32699466062936
H         0.13919942264260   -3.74579579179547    9.25418309457780
C         1.07996301155578   -4.64432842025462    7.54703407997870
H         0.86320395151584   -5.65655071426111    7.85721414107215
C         1.77365868143181   -4.41327077272354    6.37058164567460
H         2.09827724820871   -5.24359953228992    5.76016514510040
C         2.06040878744278   -3.11456602909223    5.98357458435861
H         2.61703098480122   -2.93274465758788    5.07519046098884
C         1.64050303502657   -2.04753896005458    6.75701137667387
H         1.88544133467592   -1.03846974434062    6.45853751144379
N         1.75369301067127    0.99657337186209   11.73495485845741
N         2.98566184873016    2.67799367276915   12.51570286350317
C        -0.44565744640282    1.37867248970312   13.06495921030488
C        -1.65341174816322    1.57791299549179   13.72626951529683
H        -2.45740184571004    0.86581101940635   13.60165148571267
C        -1.86328025672349    2.68035085074684   14.53761601528115
H        -2.81322274091434    2.80700690066550   15.03845663386353
C        -0.87069599150905    3.63582850175649   14.69866872899253
H        -1.04837654431986    4.50657004229261   15.31293823788356
C         0.34448286084423    3.47668128441790   14.06492209032954
H         1.10683179448542    4.23410710741165   14.17246339546285
C         0.56510278603313    2.34969622582993   13.27344893519721
C         1.77429918385051    2.04760821281416   12.55019373447730
C         3.46967313484332    3.70721051790411   13.34791939196479
C         3.48605069972202    3.52982140136120   14.72757205177433
H         3.08897268045808    2.61867409689958   15.14955629315260
C         3.99907377177524    4.52492724655956   15.53825410974178
H         4.00859631453973    4.38948287387798   16.60915606217183
C         4.50488419061764    5.68829432538307   14.97998681409810
H         4.90706077567884    6.46162585772808   15.61666479860727
C         4.49543521864380    5.85814387978266   13.60591521971033
H         4.88762449425961    6.76445966085059   13.16952827049192
C         3.97966385952565    4.87011910751414   12.78533558120077
H         3.95958636467633    4.99744731961941   11.71330890709745
C         3.77091428639647    1.98878239345532   11.61273397215118
C         5.08153466265861    2.16939291755335   11.20083869186242
H         5.68645487143734    2.97617780331003   11.58635525992374
C         5.58104500186676    1.26681019288572   10.28221374273163
H         6.59644451687480    1.37774898823353    9.93238498704496
C         4.80677740537006    0.20864816438442    9.80288154701914
H         5.24242588105901   -0.47738563263531    9.09198649873895
C         3.50759995870893    0.01317372484792   10.22206672366926
H         2.91667993273105   -0.81681419632152    9.87409505838102
C         2.98028068368007    0.92180622622151   11.13351553272575

