51
CSD_code = DADFOG | q = 0 | S = 0 | Stoichiometry = C22H21N5S2Zn | MND = 5
Zn        8.31695281030504    2.73903885458617   11.60163086767375
N         9.37154889191063    3.97644035146692   12.96451270040602
N         7.55883144930297    4.78792534658374   11.07430555050842
N         7.53647626088952    2.54098561561454    9.62851676622541
C        10.39071091924962    3.45885012991643   13.63736667182771
H        10.29951334731556    2.41362544982930   13.89475502215242
C        11.50639026347563    4.19998256941417   13.98392396512368
H        12.31532594337569    3.74356132947220   14.53070857874043
C        11.56526139960771    5.52962760912237   13.59483458529044
H        12.42960691159464    6.13459735834572   13.82354895604615
C        10.49378966610837    6.07071090582861   12.90483827982068
H        10.49926644340390    7.10294878834240   12.58939893746971
C         9.40772446466012    5.25646761190167   12.61262353904230
C         8.16657167958163    5.78553093791102   11.94750758108983
H         7.46694465951987    6.01143445869850   12.75537370470171
H         8.38292636918092    6.72099396380108   11.41363296299123
C         8.16380342625228    4.85730528512054    9.74575176572667
H         9.25217429991263    4.89310928420031    9.86432378303431
H         7.85511353213508    5.76355735317536    9.20380709023976
C         7.84808702424116    3.63267916803703    8.93713215786971
C         7.91691801309813    3.63004125928643    7.55088638346665
H         8.18151204948475    4.53205438327957    7.02113097106866
C         7.66341796137170    2.44906591727789    6.87409591216338
H         7.72544187261240    2.41319713125048    5.79696152541589
C         7.33243636305418    1.31670716534484    7.60330212659081
H         7.12698137125058    0.37868300310615    7.11362178780678
C         7.28187554386105    1.41139190055782    8.98274005442735
H         7.03431353471969    0.56330960850127    9.60500617319398
C         6.08109829838757    4.90517076902803   10.98272873245592
H         5.78151309893282    4.14524283024382   10.25346403678135
C         5.63138918806789    6.24910085248481   10.44328964588134
C         5.50309950336465    7.38163212395521   11.23914329004455
H         5.68980770859243    7.33218578751299   12.30085929420710
C         5.11467894013432    8.59208012893022   10.69127962754693
H         5.01852802624545    9.45910355776451   11.32798351581526
C         4.84618484886547    8.69413363323645    9.33774707625909
H         4.54404120074465    9.63936827676425    8.91290910281024
C         4.95685855605285    7.57203094622892    8.53518844710466
H         4.73850101112703    7.63583143387879    7.47952759438355
C         5.34366234901631    6.36323403925804    9.08562105588737
H         5.41222052112288    5.48830887113255    8.45263729326817
C         5.40927458392648    4.52808268469248   12.29871758869751
H         5.60177399605455    5.23723687005985   13.09851309521730
H         5.75650592715262    3.54805119647037   12.61635564675666
H         4.33376786741518    4.48274828158353   12.14573787875663
N        10.00734120208709    2.35581666339041   10.82389451589493
C        10.73923039549552    2.76482384275080    9.99608761562279
S        11.69098136299276    3.35257435257576    8.88363893220446
N         7.34191935935377    1.56116753378728   12.61422883627505
S         5.67446445680414   -0.20837014412875   13.89984302100765
C         6.63384112661121    0.79212272833692   13.16406575703950

