52
CSD_code = DADGAQ | q = 0 | S = 0 | Stoichiometry = C19H27BrMoN2O2 | MND = 8
Mo        1.43066055177558    4.26965473081701    4.87565557013252
Br        3.98286260613788    3.74418392348367    4.87579028184055
C         1.84713762357610    5.64908709433242    3.55713702985271
C        -0.81339535307976    4.31995650169827    4.87558883883842
C        -0.45932006781960    4.98134799702629    6.06701125738943
C         1.06076425459367    1.50744715171618    4.17764487108341
C         1.41034141557881    2.68560422419937    2.17119483584385
C         0.30020658485066    2.05410404222591    1.42280490449743
C         0.42755942422223    1.97235546747962   -0.04589029513011
C         1.76598814606914    1.30796998997767   -0.43037683017984
C         2.91992188792089    2.02858553803399    0.25669136602069
C         2.75387505685602    2.00661951866508    1.76937074110963
O         2.06913636375397    6.47139522580579    2.78640168323576
N         1.25301591707796    2.66801145399590    3.60446405619889
H        -1.30774653169496    3.34877123839035    4.87544052971729
H        -0.57091465933120    6.06298013411110    6.07994654293653
H        -0.72506098525436    4.50939540532726    7.00812180810802
H         0.96145368474589    0.58546923484770    3.61172556016364
H         1.51092023592581    3.73997185457627    1.86332170662724
H        -0.48020701846741    1.52900392140201    1.94517796282262
H        -0.40685059684143    1.41897327234631   -0.47803458895448
H         0.42910976615080    2.98048991512255   -0.48128455834128
H         1.74863243314020    0.26138948448701   -0.11868821288463
H         1.88995610537712    1.33734869007172   -1.51387093852180
H         3.86456717713683    1.54658826765864   -0.00284702888997
H         2.96541136422310    3.06303471824188   -0.09046782075181
H         2.75294147166446    0.97536432242521    2.12813487977074
H         3.57539877523791    2.53627023076916    2.25538288861508
C         1.84638819654750    5.64796889548243    6.19563506681846
C        -0.45908526970068    4.98160566988447    3.68436829049967
N         1.25303065454270    2.66805809292446    6.14703905023074
C         1.06077303900828    1.50747663588981    5.57387732581505
O         2.06947222268995    6.47181619198095    6.96442613284622
H        -0.57066548922636    6.06324260493798    3.67161403337887
H        -0.72459250426410    4.50981029814291    2.74310919087331
C         1.41030952239959    2.68561704335510    7.58032337370070
H         0.96146132859200    0.58551585447678    6.13982434780941
C         0.30026020485328    2.05395270677051    8.32870743078535
C         2.75390464033601    2.00675130221684    7.98214431457046
H         1.51076447583121    3.73998058092350    7.88824187582612
C         0.42761077987637    1.97220318941488    9.79740533676598
H        -0.48011903085578    1.52879920080831    7.80633575957249
C         2.91996505971632    2.02876130139198    9.49482128483182
H         2.75305418629341    0.97548834556250    7.62339758914245
H         3.57537437320173    2.53646647137891    7.49611411317242
C         1.76613037620979    1.30801759043820   10.18191901218126
H        -0.40671635049264    1.41868409722095   10.22953591138234
H         0.42898934872677    2.98033264889779   10.23281187358221
H         3.86466894056357    1.54687797408736    9.75435735743847
H         2.96534052884945    3.06322199217070    9.84195938814174
H         1.74892237635312    0.26142168676241    9.87027269845628
H         1.89009275642284    1.33745607564559   11.26541220102861

