49
CSD_code = DADHEV | q = 0 | S = 0 | Stoichiometry = C25H20AuO2P | MND = 2
Au        6.31269886924044    8.43681597697154   11.70138923578553
P         7.85054445576817    8.66349968632055   13.29120304515997
O         4.97002884572108    8.15846500386376   10.03896494839773
O         3.83929287460839    8.67907777095968   11.84282610453006
C         3.87099405308283    8.38763962150309   10.63551741639740
C         8.82993747996757   10.18571919276032   13.18421307701768
C         9.09989079747898   11.01067955560002   14.26916847481918
C         9.84500752271985   12.16255835131853   14.08333660157937
C        10.31801085007092   12.49405104687428   12.82459768606999
C        10.03972262892922   11.67789345063924   11.73852115548848
C         9.29099815813978   10.53063654038669   11.91485185006644
C         9.08834251872143    7.33891803204033   13.34897386462020
C         8.59155345311104    6.05350858281798   13.55846182283606
C         9.45270637403147    4.97486084049802   13.58280259973636
C        10.81143789256239    5.17138777225873   13.38389348278124
C        11.30480308128763    6.44598775498385   13.16260396851277
C        10.44822223353949    7.53374475206843   13.14323844735974
C         7.16845914798123    8.64975227294177   14.96864722171968
C         7.96348401490752    8.37414975078466   16.07917486941405
C         7.40121945023240    8.38719545009705   17.34168138726937
C         6.05302281828086    8.67174719110318   17.49951530750978
C         5.26099065941917    8.93725147992193   16.39429815240296
C         5.81362126767142    8.92454767706195   15.12544128238048
C         2.61699654494267    8.29266873460321    9.84078934588453
C         2.66255650387651    7.90218289250618    8.50705995568112
C         1.49444268721171    7.81026346026686    7.77389975687197
C         0.27788681769650    8.10830097015928    8.36697794196949
C         0.22906805983053    8.49899778600426    9.69574209002653
C         1.39481789171795    8.59077867702204   10.43288028546716
H         8.72538881252841   10.75705626792736   15.25077334582440
H        10.05410811021540   12.80534249601046   14.92564149839878
H        10.89776933426984   13.39444459363108   12.68717414528231
H        10.39976797715545   11.94205936428764   10.75544806554739
H         9.04825712201149    9.88976562998724   11.07596086648986
H         7.52639545532857    5.91783332749277   13.69994056182582
H         9.06799117038329    3.97997183419379   13.75039794116176
H        11.48506734887394    4.32770640809826   13.39737724024952
H        12.36243052796908    6.59604048964530   13.00300970700745
H        10.83411712574814    8.52875726197657   12.97061344369552
H         9.01299539649611    8.14566670777280   15.94616516245020
H         8.01427015158174    8.17320227666882   18.20503375313711
H         5.61926295789749    8.67914157710131   18.48853391691263
H         4.20975050724013    9.14872952638103   16.51873380464062
H         5.20107803442178    9.11039965192346   14.25236383276440
H         3.62132504072348    7.67519413725609    8.06584966833640
H         1.52951292747369    7.50542351523130    6.73760311695789
H        -0.63459323139046    8.03598244834783    7.79205657418239
H        -0.72142204931156    8.73152851221328   10.15471816951782
H         1.38126932763297    8.89177369951411   11.46983380785008

