127
CSD_code = DADHUN | q = 0 | S = 0 | Stoichiometry = C44H62B2FeN18 | MND = 6
Fe       20.01638307067563   13.22671683278919   12.87333482503329
N        19.55517436163165   13.21786440516629   10.97832427551708
N        16.07753968921994    8.54683517044768   10.41722380878267
N        21.42348288710305   11.91787619494012   12.47980366566916
C        19.16629916442745   14.33238999217407   10.35173174234579
H        19.32413993215768   15.24703969913664   10.90093295425119
N        19.97533654413708   10.91159829963207   10.93574890886632
N        19.99867884518326    6.31852958383529   11.22202719781855
N        20.01351915357650    8.61280567813946   11.15518206832347
C        19.31634888869070    7.46943641233516   11.09557827727907
C        19.43607088127199   12.05444923363908   10.32978126455695
N        18.02521500112586    9.74723577833106   10.59458881438533
N        21.30948492375311   14.53498179791329   12.53856190618980
N        17.99919933770795    7.40021590380063   10.90836668494057
C        18.58239628803646   14.32843186066638    9.10198218962201
H        18.27011578762434   15.25517161042511    8.64991422904433
C        22.28718736123853   15.13894566660175   12.38665503957942
C        22.26192951201370   10.14390285379405   11.10521549574703
H        22.06113759036256    9.43078666974160   10.32575644060977
C        22.64301697225497   12.01428655207570   13.02345615160646
H        22.77404132828920   12.79112068551599   13.75974462285292
C        23.51113113480708   10.24022307814163   11.69206561347305
H        24.31571393001957    9.59356492146591   11.37799172023598
C        18.86121346918452   11.96282680453707    9.06569890759301
H        18.77953619896662   11.00130026537287    8.58744335754882
C        15.38253117217430    9.74790717979870   10.01444440673256
H        15.97159163968972   10.59874556012923   10.35821074663340
H        14.40181715340472    9.76184567835813   10.49804747406112
C        19.31277740689491    9.70127307981444   10.89204296275231
C        17.39660139673118    8.56332832479018   10.65588734685393
C        21.24990908915190   10.99178936353086   11.53191350808057
C        23.70257036376077   11.20829633809440   12.66592879380511
H        24.66413882865123   11.35217152733575   13.12981389021757
C        19.31093101588054    5.06461997131060   11.01254047600951
H        18.34383212762669    5.13006900750020   11.51663979374360
H        19.90721745243682    4.27237332223714   11.47154042994523
C        18.40472558103323   13.11394805584771    8.45149877762484
H        17.94381959184461   13.06667839618842    7.47699984905300
C        15.21973635215286    9.82481411819883    8.49726709790298
H        16.19675188222889    9.82260672305940    8.02175341200970
H        14.70240202690068   10.74125769367028    8.22764546621012
H        14.64858522016469    8.97910902183649    8.12050561266525
C        15.33364338532900    7.31751126245282   10.57210300877057
H        15.97282268946182    6.49108715431214   10.25495613161170
H        14.45538459488227    7.36251563194516    9.92491969511465
C        21.43538105238767    6.35011770249300   11.36787076537823
H        21.73911733096759    5.46571952393179   11.93354058434688
H        21.68023916618126    7.24294167397218   11.94694005742550
C        22.18020032109047    6.38945198788581   10.03352225781825
H        22.07029715396317    5.45177190905776    9.49473769740634
H        23.23918845510019    6.56284484829088   10.20735322002602
H        21.79038202790154    7.19354292369190    9.41526530318917
C        14.91126669608504    7.10383414109763   12.02439928072944
H        15.79529799095423    7.05589260136145   12.65491247019278
H        14.35655704697077    6.17434413717768   12.12119637311140
H        14.28218828530943    7.92334985079337   12.36440893012904
B        23.66092485442357   15.82482870435406   12.24144149608233
C        19.06379843015787    4.75299525782072    9.53681910854387
H        18.49181164888473    5.56072224211417    9.08877991169872
H        18.49662752816537    3.83014771649989    9.44573366299797
H        19.99766345046881    4.64151610911889    8.99341638407888
H        23.55270146538057   16.82450224535850   11.59408061269635
H        24.03759951347225   16.04462339900040   13.36383279792888
H        24.35313579228592   15.00030272407415   11.69435071780170
N        20.47773028996732   13.21743846558421   14.76829123936252
N        23.95506236179734    8.54668199063710   15.32953594757756
N        18.60915867633950   11.91798177066209   13.26683706628396
C        20.86663570429857   14.33182641978000   15.39515774334635
H        20.70907910111068   15.24657238354379   14.84603129817946
N        20.05724913205020   10.91119420914119   14.81054442208626
N        20.03418214643812    6.31804649568133   14.52442498667091
N        20.01911377344501    8.61233212389653   14.59126015232465
C        20.71638857293473    7.46902141913184   14.65092632895407
C        20.59646723824978   12.05393265179124   15.41678022015882
N        22.00734202784958    9.74693904391650   15.15179142478884
N        18.72365440920055   14.53496219394460   13.20981284206701
N        22.03352338756900    7.39990151390002   14.83826585711279
C        21.45006258007642   14.32763259880377   16.64514186217206
H        21.76232846857006   15.25426422382277   17.09744822696744
C        17.74614793069201   15.13992847297421   13.35882238378709
C        17.77063541179415   10.14358188573346   14.64082003255199
H        17.97141712319051    9.43020717626646   15.42004179020152
C        17.38962878991541   12.01466210112585   12.72323761018383
H        17.25863204143209   12.79177365510054   11.98723710289286
C        16.52142964423046   10.24018513814931   14.05401850746701
H        15.71680704058230    9.59348386458909   14.36789369592909
C        21.17087255900610   11.96207761798240   16.68105489193514
H        21.25226344972059   11.00047699890428   17.15922046088556
C        24.64993183043099    9.74784176293252   15.73229401800434
H        24.06089193853524   10.59860463790782   15.38830657009799
H        25.63073699346066    9.76176988050807   15.24887679239425
C        20.71978194090556    9.70086198185489   14.85432635813599
C        22.63603110960421    8.56307160266794   15.09069977280558
C        18.78269571394804   10.99155291169187   14.21439336068516
C        16.33004109591818   11.20860310303564   13.08048838401811
H        15.36847423476549   11.35271710254641   12.61667614113369
C        20.72207050461894    5.06420068056197   14.73382393851239
H        21.68928211924779    5.12992077098920   14.22997741699572
H        20.12602954796889    4.27195122423466   14.27450597198629
C        21.62728163005091   13.11305320925375   17.29557752662750
H        22.08786606374979   13.06559235382245   18.27022223870001
C        24.81242747225802    9.82496111631351   17.24949266003946
H        23.83531637345350    9.82280444839943   17.72481010075600
H        25.32969151668106   10.74145038502825   17.51909370177759
H        25.38351722774057    8.97931527897309   17.62647956229925
C        24.69902625108496    7.31736617710042   15.17492923228503
H        24.05984574756512    6.49096795751710   15.49214510508681
H        25.57721891953175    7.36250829261105   15.82219251732821
C        18.59747525453415    6.34949334682746   14.37858684239784
H        18.29379950249872    5.46488697695255   13.81321386123534
H        18.35253773145893    7.24211082937043   13.79922918783550
C        17.85267165152433    6.38920764897878   15.71293460151122
H        17.96258198614614    5.45168598764885   16.25199203662978
H        16.79368129313667    6.56255224263144   15.53907038877432
H        18.24250356974189    7.19347424949721   16.33095339140354
C        25.12154319381118    7.10348234877155   13.72270432027588
H        24.23757201814336    7.05546365384628   13.09211186252476
H        25.67624891060919    6.17397084468695   13.62609465166497
H        25.75066212748364    7.92294242124624   13.38263595644068
B        16.37187710485752   15.82479434698172   13.50384868734289
C        20.96888771275573    4.75229661924963   16.20953812692788
H        21.54060131126661    5.56003238729783   16.65791068119334
H        21.53621366182469    3.82953796232639   16.30055984767377
H        20.03490423815836    4.64050593203515   16.75267352060988
H        16.48059792933987   16.82998206369193   14.14250595919497
H        15.99153907606340   16.03465347317089   12.38072277284629
H        15.68237220067508   15.00397431262299   14.05973516670132

