46
CSD_code = DADJIB | q = 0 | S = 0 | Stoichiometry = C23H14FeN4O4 | MND = 7
Fe        4.62729849279378    3.08114661519248    9.46255510485742
C         9.07346201112980    1.08621299148214   13.82191832435864
C         9.13197930178416    1.43564993823039   12.35833253420825
C         8.15687612505446    2.24910333978806   11.97233223558440
C         7.77474302470905    2.76894513255360   10.61344893915944
C         7.63953259343391    4.26223752717812   10.77170450000438
C         6.78210531618495    4.65270741991708   11.70655414796581
C         6.10434661582102    3.53396990589397   12.45583732618932
C         7.23052619188456    2.67365944062643   13.07505429775722
C         6.71884059688955    1.39280344498076   13.76152553943340
O         7.79538697245405    0.55947613729920   14.14209941130462
C         9.22566786589132    2.44687741155162   14.61881955301941
C         8.08218478756381    3.41867570456354   14.15035664966264
C         6.37814704344040    2.19342794572022   10.43130847655284
C         5.47370818958776    2.61477552605734   11.42402640865267
C        10.11467357447152    0.06568609064794   14.24980419287368
C         5.91062040459625    1.34745772235090    9.38442794417764
C         4.11392994351201    2.18743893153804   11.34658330638115
C         3.28548248034957    2.28285826304294    8.57942722676043
C         5.45268093056311    3.90194445067272    8.13973270798584
C         3.88511431049807    4.62899896009245    9.86026399613262
C        10.54269017886188    2.99069295605111   14.34521001424319
C         9.13515377986796    2.19083398348010   16.04446168608314
C         8.67970433441510    4.65490755747684   13.66528172797051
C         7.22458195932143    3.81101866119468   15.25864709924852
O         2.42523670364298    1.80706514906436    8.00060466878448
O         5.95196567131118    4.44136225625862    7.26305256854316
O         3.38307292034691    5.63227011550345   10.08295367652548
N        11.59535102104164    3.36936463350497   14.11848088320263
N         9.06437633731589    1.97384592064239   17.16244820309394
N         9.19584245423133    5.63345398141898   13.38290063785304
N         6.51898775358417    4.13891976891337   16.09355782845929
H         9.88687572629548    1.00902427971501   11.72256620738924
H         8.47359247345615    2.46765620381446    9.83519132906007
H         8.21754402881614    4.92519419758558   10.15397314091266
H         6.55116189955724    5.67723585515445   11.93799658795211
H         5.39213004533191    3.88184720974765   13.20628847176360
H         6.07743162042144    0.83016809342345   13.07317673681748
H         6.13558909032893    1.63957054692801   14.65897204370910
H        10.00474313211684   -0.16127921316072   15.30774687096976
H        11.11694977456324    0.44319092022448   14.06096742995792
H         9.95915364932057   -0.84948712747905   13.68444119345045
H         6.60909124898224    1.15683000093054    8.57662183836662
H         5.37329986742182    0.44738626255369    9.66896723734435
H         3.43261976551184    2.63911570958814   12.06002770749202
H         3.92844779132235    1.12245917808507   11.23895138778499

