103
CSD_code = DADKEA | q = 0 | S = 0 | Stoichiometry = C54H44Br2N2Ni | MND = 4
Br       -5.05930440690722    5.49349854150572   -2.56408720975179
Ni       -3.60629430201428    3.89794980749940   -2.01479639213514
N        -3.37412385432731    3.90411168951257    0.24633019340753
C        -1.38894942661989    4.59932870036274   -0.84780043745555
Br       -3.81878865454200    1.78220269504123   -2.67758884706815
N        -1.93441605884493    4.45440156739678   -2.01705517990353
C        -0.06255115553338    5.02954839695046   -0.45295135339105
C         1.07234642747156    5.43032249018342   -1.11762693634954
H         1.11668158164571    5.47944487748948   -2.19544183815166
C         2.19887649696427    5.78302464293543   -0.35400404474214
H         3.08887425467267    6.09775199069072   -0.87902955557025
C         2.20983029645651    5.74307876067941    1.02008828981343
H         3.10036252931652    6.02406731905646    1.56294665816444
C         1.06048514918977    5.33603996850978    1.73348113780869
C        -0.05100047098754    4.98871747755178    0.96334927858590
C         0.89828569511589    5.23798605565383    3.13385805572164
H         1.72403491732544    5.49323229054313    3.78183285365834
C        -0.29639235866424    4.82276876386510    3.66508350453102
H        -0.40004774419307    4.75477662795916    4.73795541541299
C        -1.40649271912476    4.47727066947133    2.87154933029462
H        -2.32318554386429    4.15741903546957    3.34062517233674
C        -1.28231180264061    4.56083052416597    1.50829906805920
C        -2.15730811380411    4.30530285063202    0.36812286561274
C        -4.14443924036256    3.61061894797742    1.38722104461043
C        -4.16122658878571    2.30700947929750    1.89524452828062
C        -4.90723703579072    2.04333576612852    3.03103930568291
H        -4.91791180081368    1.03997295292133    3.43176135855647
C        -5.65331788229235    3.03432791921863    3.65564235873803
C        -5.66801852931161    4.30512652722048    3.10212966847946
H        -6.27246598141611    5.07778128877785    3.55485804217023
C        -4.93420658804997    4.60805297241319    1.96561538557940
C        -4.95765257951537    5.98902216733358    1.34067359707394
H        -4.95313921529609    5.84972951849075    0.25233556270961
C        -6.23508965679648    6.72956335916570    1.67060823354358
C        -7.43301554662945    6.20079335206397    1.19948104800897
H        -7.41694483407739    5.29161201207664    0.61623235948904
C        -8.63516772901602    6.82492944478603    1.46935945620299
H        -9.55617696145440    6.40155164026391    1.09679674003838
C        -8.65827040282809    7.99461401479032    2.21135921157433
H        -9.59662254161151    8.48577210047677    2.42311602902983
C        -7.47119787240363    8.53367826829338    2.67231059276202
H        -7.47908171126022    9.45031803444654    3.24451250805663
C        -6.26563317884280    7.90602807717703    2.40392982233757
H        -5.34725223600075    8.34479286203471    2.76548608063155
C        -3.70075674232483    6.73658848677672    1.70805321873617
C        -2.91671946410850    7.30360500923957    0.71259532276916
H        -3.24581294411173    7.24106028308096   -0.31488045904217
C        -1.73492302636150    7.95121847501858    1.02670437087089
H        -1.12794834976038    8.38149698033666    0.24225143830661
C        -1.33071082645765    8.05401882858664    2.34607036855909
H        -0.40811571609781    8.55828803434233    2.59315733376447
C        -2.11738002971492    7.51129727154821    3.34771497535898
H        -1.81232082403811    7.60015440749211    4.38033786034658
C        -3.29063026553108    6.85027957081224    3.03101802615804
H        -3.89572754361850    6.41757218699915    3.81493431077336
C        -3.35952136715347    1.22889390437060    1.19321035329046
H        -3.45567277062452    1.40685707237042    0.11479613378335
C        -1.90024279213261    1.36431196242808    1.54760700364525
C        -0.94758115909717    1.43641505158219    0.54048413004331
H        -1.26378426948628    1.34700210514056   -0.48895858011978
C         0.39119702325201    1.60856307604690    0.84497428795249
H         1.12333839692784    1.67179781091656    0.05194532887257
C         0.79593396940260    1.69428290972936    2.16538347011888
H         1.84033478750350    1.82952801176855    2.40505972228912
C        -0.14419494909270    1.60071932403857    3.17736628502877
H         0.16860050075751    1.65413380774347    4.21012306927932
C        -1.48415078314159    1.44431897740628    2.87114804058537
H        -2.21620111123744    1.38321259783053    3.66377628488940
C        -3.93162763359543   -0.14787355150597    1.45084305530935
C        -3.23787761523276   -1.14886651263313    2.11383462531933
H        -2.23413957387629   -0.96958659544612    2.47047112998813
C        -3.82083981652101   -2.38906001823835    2.31733818435061
H        -3.26759725483109   -3.15955669806232    2.83500786238796
C        -5.10113330120151   -2.64346604887307    1.86089649771878
H        -5.55335432761285   -3.61100879715400    2.02199749862237
C        -5.79696362883013   -1.65171228760484    1.18880313951667
H        -6.79378036040299   -1.84412149635321    0.82017263923953
C        -5.21471738959599   -0.41624282461344    0.98359229067549
H        -5.75677315298669    0.35375842419274    0.45415374250355
C        -6.44578391607095    2.71498396585687    4.88660582596184
H        -6.91065608733812    3.60957086075476    5.29316522973973
H        -5.80694589874617    2.27223011031514    5.64980378211611
H        -7.22855163946241    1.99435218322811    4.65219701715282
C        -1.26050335612109    4.71140469658570   -3.21787778433436
C        -0.52044054635121    3.68618613156259   -3.84220248365377
C         0.05529347304630    3.94047537562842   -5.07420490399801
H         0.60608508216123    3.14926164556199   -5.56138221952240
C        -0.05298568071300    5.17766506445870   -5.69647238977917
C        -0.70664845398162    6.19879682399329   -5.02203466746641
H        -0.75618137543892    7.18246241986439   -5.46548145134598
C        -1.30101923882856    5.99970373006713   -3.78708355827641
C        -0.32619350755294    2.36089698591400   -3.18438093999118
H         0.47448327674269    1.81076561304427   -3.67139262013548
H        -1.23525153546339    1.76049555959110   -3.25135152598310
H        -0.08033749584601    2.48282223972190   -2.13028506769309
C        -1.93836586508956    7.14392817363603   -3.07209384571395
H        -1.67314437553052    7.13940575578054   -2.01589895193076
H        -3.02576819403643    7.08700714987405   -3.14629578653362
H        -1.62258474464062    8.08667842606060   -3.51052478387856
C         0.53687624617036    5.39934850727558   -7.05222133566032
H         0.66046059527100    6.45956175858621   -7.25735543837609
H        -0.12420687433234    4.98044046919089   -7.81110527779994
H         1.50102179954836    4.90317016565513   -7.14156274723694

