39
CSD_code = DADNIG | q = 0 | S = 0 | Stoichiometry = C14H20N3RhSe | MND = 6
Rh        7.06937095336357   10.91986301831054    9.68211223141033
Se        8.06197750848356   13.02183641148864    9.04338008604575
C         7.63639834849730   14.21313188483011   10.31395544165675
N         7.37016004748644   14.99108526146104   11.12093275266779
C         5.76530778158764    9.21934085003570    9.84558558667994
C         6.98025357319946    8.94436550471656   10.47540071079696
C         7.20161443875744    8.96247580204265   11.97023131239885
C         6.62305405433004   10.21109753664252   12.66199907983361
C         6.63244541970558   11.42594019451825   11.76099711020830
C         5.56662049798617   11.79803958203860   10.96955120626299
C         4.27586624444467   11.02542650119960   10.82740443260844
C         4.48501847664915    9.51648791958338   10.59677308909828
C         7.96353910086521   10.26936837582998    8.01185973492571
N         7.43682064721991   10.25687650020261    6.77194440013347
C         6.11396977673187   10.71904455093822    6.45151418197218
C         8.36378915011179    9.80580338199478    5.86988183892246
C         9.49308709727514    9.53908097903629    6.56644795422284
N         9.23120281713633    9.83354083218206    7.87832586292799
C        10.17920212025807    9.75882359351554    8.95619445834840
H         5.61313961104234    8.77834069794222    8.85984861921139
H         7.67128283209175    8.28054605870713    9.95228928751065
H         8.27938437389618    8.92292994319670   12.15241280684371
H         6.76900864604065    8.05603808708050   12.40926597197650
H         7.21823751267466   10.42662441520989   13.55136058354900
H         5.60163641983632   10.02417665274801   12.99582667202663
H         7.34342116908239   12.20280207499661   12.04574726874053
H         5.47366762782454   12.85228394296868   10.70405240523731
H         3.72320717531902   11.44140519871525    9.98025963309219
H         3.66361872631300   11.18834459075071   11.72072345555934
H         4.49879449668384    8.98334292972459   11.54831704427725
H         3.63889572623192    9.12978699031958   10.02445036132285
H         5.49106371882181    9.89831806702528    6.08978527114754
H         6.16030331383156   11.49615421232773    5.68733256764689
H         5.67354097669873   11.14011644978365    7.36362590761132
H         8.15239664036079    9.71954116149970    4.82407100122070
H        10.44592918949924    9.17783113191542    6.23862378116449
H         9.72321961101860   10.21912946903528    9.84037768617930
H        11.08629059798848   10.30672406203641    8.69821709567053
H        10.43876358061545    8.72123518345103    9.17712110889864

