17
CSD_code = DADPON | q = 0 | S = 0 | Stoichiometry = C2H9Cl3N2Pt | MND = 4
Pt        1.46734110355214    2.60704657502031    2.20131839104536
Cl        0.59379708142808    4.49805807273563    3.02384585599263
Cl        2.44967792018738    2.06448886424977    4.34965239280007
Cl        0.54458509917885    2.94656334209101    0.18465918125336
N         2.25153168655696    0.76255967132139    1.34767566975318
N         0.58407454909555   -0.05029800283843    3.67823623960336
C         1.33295385932662   -0.37801573301187    1.33461457790724
C         1.14443629083712   -1.00234643837067    2.71673497869582
H         3.16489864564366    0.48523521930223    1.70508595079336
H         2.36051648927516    1.09955433411657    0.38876350017263
H         0.19572877156643   -0.52595932903117    4.48529997521700
H         1.60672497976116    0.93520891198696    4.18417665534718
H        -0.14898073782681    0.51168444779738    3.24356216083185
H         0.37276136770934   -0.01624991089602    0.95496252185965
H         1.69384682927889   -1.16457708553306    0.65907956326492
H         0.49995410745119   -1.88153677011020    2.59602070543445
H         2.10895195698060   -1.34051616883258    3.10881168003053

