98
CSD_code = DADWUD | q = 0 | S = 0 | Stoichiometry = C42H49N5ORu | MND = 6
C         6.50879538237128    4.02065956798372    4.21541432927284
C         6.84476191032700    3.00599787092404    5.19055326674255
C         6.60666724066138    1.78733980466393    4.61147229572210
C         6.11098866357364    2.05544580893808    3.28270640241539
C         5.63404292727021    1.29659406206211    2.18879506696869
C         5.57107219235204   -0.09695956752737    1.82131427136940
C         4.85990668416096   -0.15757480603803    0.65050747401212
C         4.53932684601273    1.20038856796082    0.27151389644009
C         3.83742608716857    1.51767307506839   -0.90205813125077
H         3.40532662654063    0.64025920071949   -1.36957792041896
C         3.63357951629774    2.66949937018245   -1.62981225243843
H         3.07679569979764    2.49938303652708   -2.54403330580517
C         4.02843444473349    4.00977012367108   -1.49218627108171
C         3.90705745163247    4.97879842278913   -2.55810834810425
C         4.35704727588119    6.17902352084352   -2.07212603736547
C         4.73255924572429    5.94833671451966   -0.69850766893321
C         5.19994676943712    6.72397527518614    0.38711074288678
C         5.35877399961998    8.12785758575327    0.68304510543195
C         5.87134073323499    8.20172996203650    1.95163124948327
C         5.99433328701920    6.84674747152500    2.44631421656418
C         6.46506580135032    6.54734454193036    3.73138937840131
H         6.72925260041499    7.44013775115043    4.28612349998455
C         6.66740031069361    5.39116601165518    4.45854481880774
H         7.05128853372142    5.58603789383997    5.45318043552662
C         7.37897251472991    3.26742625322596    6.56129378483375
H         6.91765231054875    4.16625645149736    6.97552456066580
H         7.12050186607563    2.43975555558056    7.22366384647623
C         8.90048683373170    3.43802603208015    6.53845227038310
H         9.37454333926997    2.53750259352913    6.15357627397744
H         9.27849591254581    3.62816582488579    7.54082592529988
H         9.18144658350574    4.27052321320247    5.89698090165308
C         6.71482609940013    0.47706253015454    5.31918081853432
H         7.32562955249941    0.60291222640382    6.21482032895104
H         7.21535002903892   -0.26003981907803    4.69609923270001
C         5.32625139202900   -0.02095821633896    5.72919298872314
H         4.87556685635805    0.67474774219566    6.43367846335100
H         5.39210790264893   -0.99906318399159    6.20228584007983
H         4.67129413532155   -0.08956430320496    4.86350887185953
C         6.27626057527434   -1.25145039022867    2.45263069120922
H         6.04196854376833   -1.32264333269153    3.51226841281277
H         5.93739448441340   -2.17736789438723    1.98521253324518
C         7.78868633631079   -1.12618044729060    2.24697621357787
H         8.02540412549850   -1.15806157900204    1.18513259321491
H         8.31283801367421   -1.94215452146113    2.74100790092810
H         8.15564874186077   -0.18095580060950    2.64198678734201
C         4.53269257721226   -1.37034882524746   -0.15751879903083
H         3.52634406727958   -1.27832692555575   -0.57280572463547
H         4.53711806507761   -2.25505710157748    0.48177674240360
C         5.53462650115193   -1.56868678356052   -1.29789332127920
H         5.53828066109835   -0.70204063785188   -1.95556068417171
H         5.27738896869966   -2.44913429298280   -1.88306622639474
H         6.53832501991417   -1.69953501042717   -0.89955116602282
C         3.37961160374243    4.69742405172702   -3.92790541189366
H         3.61648039471247    3.67148726659796   -4.21714588908731
H         3.86006269176510    5.35544545348951   -4.65485429999409
C         1.86395825001121    4.90678244283355   -3.98294257596812
H         1.36406457837856    4.25371141084340   -3.27132330110255
H         1.48439685633566    4.69293387699792   -4.98006673959401
H         1.61703971103635    5.93520743308004   -3.72925482907285
C         4.55774795634469    7.40889688260007   -2.89506116771126
H         4.05145447593978    7.28449830440446   -3.85342298008181
H         4.11502583321540    8.27725276379213   -2.41371478737323
C         6.04980569435582    7.64173794935849   -3.14852468036349
H         6.59513185493179    7.70557355048786   -2.20911498004967
H         6.20609061058604    8.56116736135390   -3.70961450021229
H         6.46398195423016    6.81377060760460   -3.72096883694471
C         4.90323900006057    9.29831261566645   -0.12308149969235
H         5.28589570351083    9.24588140984572   -1.14026456899213
H         5.29519084878770   10.21466906817101    0.32171849651839
C         3.37363073486758    9.37217756645686   -0.12905509971059
H         2.94379556226646    8.44156280186767   -0.49253014281490
H         3.03064352901234   10.19173836903737   -0.75798652617956
H         3.00448605857660    9.53469274170298    0.88104239871938
C         6.20196391095377    9.43431414238958    2.72817360004989
H         7.09099703229497    9.26183573418690    3.33969526542946
H         6.43693734526574   10.25202127846999    2.04351068897349
C         5.03842744872422    9.85261476450884    3.63058139408510
H         4.16211742139431   10.08559753110002    3.03091821103176
H         5.30435845865546   10.73295698568255    4.21227022856174
H         4.77774092457623    9.04694485026757    4.31287005179010
C         3.56388555259670    4.20854804797815    2.17098468532959
C         8.15635574596789    4.35792084952339    1.09241415866283
H         7.99051743603603    4.92916781474161    1.99746772699958
C         9.43322562141866    4.21553089603879    0.57988692892535
H        10.26837295009026    4.67544980451033    1.08484441534570
C         9.61697396082820    3.47865840289121   -0.58006535339548
H        10.60021468013354    3.34599838257992   -1.00522638701749
C         8.49834010051469    2.91854079338429   -1.17720147474868
H         8.58292924622238    2.33685987314977   -2.08190203239525
C         7.25724508513755    3.11218120396049   -0.59773451368537
H         6.37128567617806    2.68447833447604   -1.05012153621014
N         6.05757611776008    3.40818258108831    3.10393790447034
N         5.04138031829510    2.03294182956877    1.20138784733909
N         4.55776085699151    4.62224394720830   -0.41717894553643
N         5.57223746675238    6.00287756246290    1.48520738319473
N         7.07768150788071    3.81677105046840    0.52158752425571
O         2.53292254350203    4.32780035543256    2.66915603368712
Ru        5.21612645023910    4.02509843236775    1.38482154113875

