50
CSD_code = DADWOV | q = 0 | S = 0 | Stoichiometry = C20H23CoN4O2 | MND = 5
Co        2.85543722095219    8.24315949414971    3.68217209540566
N         1.70996641450056    7.06356642645931    2.69249314593316
N         1.54476886905020    7.94459736214673    5.04536144719913
N         4.22512736502695    8.77789971611875    4.94962349857698
N         2.30302513258109    9.77624737046430    3.12070383426027
O         4.16787946011973    8.12934299960079    2.32762193640733
O         1.65047607812768   10.46585990124832    3.84050540027586
C         2.60458454425815    9.54292490429453    6.61380841111017
H         2.54833597517861    9.83958217383743    7.66208290746876
H         2.60076175203191   10.44615977505312    6.00268244378603
C         0.87947439673321    6.37461235567794    3.46812188358994
C         5.41355416376847    9.19159470612672    4.64344128692328
H         6.06213728704483    9.52128719307935    5.46012083776036
C         6.00893008697635    9.22512720496071    3.36177804519312
C         0.62992539230563    7.03348592318273    4.75056983513195
C         7.29926617545805    9.76398277566757    3.20029035161108
H         7.78473466668699   10.20837801964012    4.05859873725841
C         5.33797786032682    8.63951059123154    2.24807511137524
C        -1.45321677962226    5.80674255751399    5.51215498471799
H        -2.25760481602732    5.90486065982805    6.23222759052880
C         7.93074380489038    9.73520121379419    1.98702813323397
H         8.91680125578199   10.15752375372660    1.87003551446668
C         1.78518667529244    8.08283573753080    0.46765016204707
H         1.69229582952598    7.86418985643706   -0.59362823756778
H         0.96825546100131    8.73513595968413    0.76502393564514
H         2.72216088937972    8.59501141875252    0.65075544108167
C        -0.52861888309337    6.82828279700642    5.53023263960264
H        -0.74207152166566    7.60640325715013    6.24879734753395
C         3.89809295043822    8.77619287427912    6.36215922705890
H         3.77816195011311    7.73936580597277    6.69826887924045
H         4.71624897609601    9.22977502444065    6.93661262332627
C         0.34800348933456    5.12141566783804    3.10163591735279
H         0.81559238818122    4.66407102234195    2.24171802740534
C         7.28893909649908    9.14368072741140    0.89096443857260
H         7.79166124902931    9.11782520777640   -0.06531107718617
C        -1.47304647570319    4.65025278447707    4.74767299802166
H        -2.23772135330853    3.92273640645266    4.98458252981598
C        -0.62908610115704    4.34736925383556    3.69162980445567
H        -0.79007507757065    3.38138560311082    3.22657774884653
C         1.39182464414894    8.67912450503837    6.28550637243301
H         1.24655241552480    7.95962563893913    7.10414353453445
H         0.50848531728589    9.32918633524255    6.23119373921873
C         6.03908161677325    8.60302839574307    1.01340790147669
H         5.54257938168331    8.15051733480556    0.16820206698313
C         2.87303301937573    5.84493557868875    0.85811318999786
H         3.82290868115011    6.33160444705464    1.04927171635275
H         2.84315046575312    4.91569609860096    1.42360742454009
H         2.79778602596324    5.61052637367923   -0.20140521818959
C         1.72822019880968    6.77833698086875    1.26291869216144
H         0.77081238498813    6.29704182903881    1.01130074302476

