112
CSD_code = DAFCOD | q = 0 | S = 0 | Stoichiometry = C61H24F20N6Os | MND = 6
Os        9.71036640450326   15.89931267545146   10.77904736603386
F         6.36827546074435   19.72585525417604    8.53402842618920
F         5.15118632216218   20.96193411246664    6.44522499597392
F         5.60645353085174   20.09879899158996    3.90018459466188
F         7.28994260183281   17.99848296390165    3.45697957274224
F         8.50765573383849   16.77505796072743    5.56025941923489
F         7.35419985183829   10.95297297199005   10.30663277966326
F         5.31596900332805    9.17626158639151   10.48380078804392
F         2.85347747892605   10.00397144049955   11.32016306112707
F         2.45653353711784   12.62048585406386   11.98411134887021
F         4.50268591034506   14.38540629260470   11.82300165961816
F        12.41637753555800   11.59456496645917   12.60152824296955
F        13.74872975199547   10.06014179982708   14.40418665097671
F        14.18548538439073   11.00175594037979   16.93013332397708
F        13.28389114742179   13.47851975336521   17.62879313506038
F        11.94390247810506   14.99376240939934   15.82530494868886
F        12.68034420685473   20.71515794263253   10.88934545636561
F        14.93189935069036   22.13191738074272   10.41677865961575
F        17.13662462113421   20.89854734575086    9.38512843968452
F        17.05334966700575   18.22851525343338    8.81829935997998
F        14.78844334756745   16.81830859801694    9.27391446842918
N        10.16771826587492   17.47657006051698    9.59236283828012
N         7.93365921389459   15.65400140563967    9.78698689276880
N         9.31229585137045   14.24514471834961   11.87655074110960
N        11.59076125301471   16.00748096227866   11.61544977419456
N        10.67689251527639   14.53714258528796    9.22865056032242
N        11.94302406628050   12.94331422554313    8.40492007419935
C         8.13198750772362   17.53214385233913    8.22431694003816
C         7.46972502730463   16.42331517870470    8.76506470467017
C         6.20791681586633   15.92150975210587    8.31488162616449
H         5.61850965894550   16.33620849411756    7.51992276607707
C         5.92198468373826   14.83712666873803    9.08172263194337
H         5.05975638692298   14.20279782559947    9.01537238501951
C         7.00535637748700   14.68500728268100   10.00555422165442
C         7.10461173117880   13.67533167220959   10.97465014834932
C         8.17636833860426   13.49464189338029   11.84310029074615
C         8.24171360129503   12.46601619543947   12.85203837760066
H         7.46861150954200   11.75531974075903   13.06889610908114
C         9.43970955684090   12.58869594783356   13.45982585815151
H         9.83061853480895   11.99805761101541   14.26553648002899
C        10.11470866507076   13.69811227484247   12.83362906180919
C        11.39417765638795   14.12485885236012   13.17274191065158
C        12.07642970891874   15.21009926011083   12.60485089033816
C        13.40214543354814   15.62306027300865   12.94911703505432
H        14.02506657382652   15.17362003413263   13.69802120845605
C        13.70046317283932   16.68458893415525   12.15516871211496
H        14.60481645575361   17.26133068275087   12.15325083744617
C        12.56182071451741   16.90832585444940   11.31662451066792
C        12.45734259092602   17.92139966996423   10.35081863093302
C        11.33407248007182   18.18060966232249    9.57255005761125
C        11.27085376237958   19.20286187499689    8.55549300162775
H        12.05357122230563   19.89602412229549    8.31816055347882
C        10.05968816026396   19.10102402076293    7.97136767363743
H         9.66010046789216   19.69649672699816    7.17325036125056
C         9.37788787194921   18.00521623200644    8.61390311945671
C         7.46210251253902   18.22274623503584    7.09081718081876
C         6.60058081977169   19.29562105342072    7.29270551781915
C         5.97221919462118   19.93379370708435    6.22717495778351
C         6.20383876492795   19.49477057213963    4.92661974116312
C         7.06303018879387   18.42256547319409    4.70164093942693
C         7.67956752180164   17.80240986289854    5.78251033968535
C         5.98308021801567   12.71396932113710   11.06635435294043
C         6.15778846758606   11.37219840898854   10.73314392796005
C         5.11660455419498   10.45439318265147   10.81393613326918
C         3.85912821364926   10.87487315621164   11.23770314267678
C         3.65859465119227   12.21076782344188   11.57376689210830
C         4.71479468733864   13.11126272354085   11.48425900755852
C        12.12951231375938   13.32020187088794   14.17804990547174
C        12.60861312908565   12.05551628947866   13.84603765532047
C        13.29937108977787   11.26630620401584   14.75724994371618
C        13.52629494128484   11.74704768490847   16.04413088386383
C        13.06556103089071   13.01225062188312   16.39815470773764
C        12.37750873563570   13.78371951027109   15.46652789279664
C        13.67488115812882   18.72571816193312   10.10313514988458
C        13.74174554163808   20.08997972264343   10.37641153035696
C        14.89825687984228   20.82685146913212   10.13954558086735
C        16.02481894235290   20.20028028829856    9.61508677181594
C        15.98117070897009   18.83853055050996    9.32970630997889
C        14.81577700470384   18.12243412938203    9.57497628978500
C         9.02118574918081   17.04742275594376   12.18752480908981
C         9.18476609480424   18.49799775903553   12.15915968986534
C         8.33413821800939   19.27059488125326   11.36418403723239
H         7.53964455128248   18.78513059989285   10.81773544157406
C         8.49383969562464   20.64031197197853   11.29374823482500
H         7.82544886435556   21.21986558711010   10.67475774898884
C         9.50383834670003   21.26381056342571   12.00754369113990
H         9.63551121967411   22.33289642979507   11.94331447210462
C        10.34454219603480   20.50803472465170   12.80628458483500
H        11.13128025606317   20.98906219363963   13.36740404966647
C        10.18632454417085   19.13771227837609   12.89052688999474
H        10.85589341461951   18.55272153816968   13.50261722428506
C         8.40303543401649   16.49051963433439   13.39010727238686
C         9.12660137933980   16.31144237639788   14.56955136684191
H        10.16087943329911   16.61410764572376   14.61522270406145
C         8.53689609382039   15.71264175616417   15.66684865081945
H         9.11762434082052   15.56778194245670   16.56571464267535
C         7.21475104920738   15.30486307512729   15.61780845633549
H         6.75761182672056   14.83943595044989   16.47812079105353
C         6.48012745642019   15.50483599778508   14.46068417032422
H         5.44387680847880   15.20458510502464   14.41573224431861
C         7.06624528075579   16.08683973683030   13.35357086047852
H         6.49168371845787   16.24264507273811   12.45283254741717
C        11.42989865766788   13.49718030161254    9.51431271130531
H        11.61604419550391   13.11411784533268   10.49869096722656
C        11.48862311586241   13.67816106131075    7.34949206492312
H        11.75058401032745   13.44901012510091    6.33758101180802
C        10.70418342983213   14.66298351139929    7.87381110573989
H        10.16346833149824   15.43502194721333    7.36322573555039
C        12.81857865042866   11.80769779349748    8.33978525979569
H        13.80555565068231   12.10929953975117    7.98280462749168
H        12.41379566436024   11.05740530623742    7.65909753696152
H        12.91652189265371   11.37306892758246    9.33296196123384

