36
CSD_code = DAFFEX | q = 0 | S = 0 | Stoichiometry = C16H12N3O4Re | MND = 6
C         0.66989727244816    0.45214371304740    1.81670140762023
C         0.55958427610789    2.21741456876988    3.99011819444838
C         0.59675567466374    3.21057165152588    1.34591890757768
C         4.42999505300373    2.65158985504764    2.70828077550443
H         5.30580646764665    3.26574064808997    2.95319549357104
C         4.37694022390889    1.37717120146433    3.51828764865575
C         5.46266486535126    0.84292599930670    4.19531772246814
H         6.41485833611619    1.34883558867250    4.16689068645417
C         5.28559499495046   -0.32604174841999    4.91410888125631
H         6.10638194625424   -0.76075934606245    5.46397002183073
C         4.03327073594889   -0.92477043503141    4.91715617422089
H         3.85302767435047   -1.83624518303538    5.46375951332456
C         3.00606735451184   -0.32879827687694    4.20951578367612
H         2.01407832113295   -0.76097253742552    4.18863418029402
C         4.41887371235269    2.22118488339584    1.25921513681049
C         5.53283564725682    2.24687640927242    0.43409772703873
H         6.47880231510267    2.59283096020463    0.82001580799138
C         5.39194561865437    1.84378447098455   -0.88200488098929
H         6.23582698205331    1.86476941154477   -1.55464377567541
C         4.14587801753098    1.41687871854752   -1.31991940233571
H         3.99315555922324    1.09558143498382   -2.33750878890739
C         3.08899909019548    1.41515532489465   -0.42872978689276
H         2.10089349780359    1.09271618075976   -0.73013010216454
C         3.34426991139780    4.63514578571296    3.39695724799670
C         2.03987647151120    5.37517143421764    3.63558485621224
H         2.26061118828659    6.35910678433186    4.03995383051970
H         1.41560662089601    4.82038755357464    4.33296404220809
H         1.49801675497309    5.47968776603536    2.69764300132852
N         3.19603200960761    3.38027600096050    2.95469990067832
N         3.22176627380281    1.81051077982551    0.83429744536114
N         3.17325763339450    0.79989736239067    3.52579226481188
O         0.13240325702841   -0.49526440144749    1.44957079506383
O        -0.05400491266455    2.33056003646213    4.95223738754715
O         0.00071095320847    3.93216379647406    0.68355690820576
O         4.43507173999953    5.16424631022733    3.59751486384696
Re        1.68704846199008    2.00262729757437    2.41648013044187

