46
CSD_code = DAFGAU | q = 0 | S = 0 | Stoichiometry = C22H16N3O4Re | MND = 6
C         7.40254822827613    6.57043312123285    4.36432914244312
C         8.31222041698116    7.06735902581713    1.75305436938974
C        10.01856598174896    7.42540438777918    3.98186410646208
C        10.15568956570806   10.41310663024985    2.65694688429814
C        11.15476224702685    9.52171234861093    1.93756384927396
H        11.62912902334295   10.11318058188918    1.15660394351495
H        10.67663853147020    8.64716525377554    1.50165860371587
H        11.92977002197177    9.21172597236875    2.63504644336371
C         7.93071734210912   10.91007617329193    3.25770348328807
C         8.25071946415208   10.77759884597803    4.74566367364000
C         8.75747458048188   11.78026640781409    5.56038548789913
H         8.93444622168261   12.76459832188516    5.16485086932090
C         9.11044903255703   11.46778310641080    6.86166680690536
H         9.52900678837930   12.22740361196333    7.50423519557126
C         8.93345178147086   10.17152485729931    7.32074881474115
H         9.17841375323294    9.89347623928400    8.33295837179419
C         8.49032541064168    9.21643544309567    6.42557149449276
H         8.39498647318491    8.17715625218641    6.71301933939689
C         6.52497635901631   10.36434362228955    3.02691349652216
C         5.40912250407937   11.17468594144226    2.84705500093662
H         5.50996102956057   12.24733956675739    2.86273935477219
C         4.17462737240947   10.59281910502875    2.62858907124433
H         3.30115709263477   11.20955603777032    2.48224324940934
C         4.08419812522300    9.20889755949473    2.59299942430459
H         3.14412432071736    8.71166016785006    2.41765638969305
C         5.23406760197401    8.47197494725143    2.78724271846889
H         5.21151019115548    7.38972729515741    2.76827659398427
C         8.00563324484646   12.29758905895644    2.64870813678719
C         8.45297975880238   12.43931985948765    1.34059383897592
H         8.79622088226052   11.57093698969345    0.79799204623612
C         8.47847690540279   13.68073170146860    0.73382820163964
H         8.84744682872788   13.77215844597404   -0.27693578399855
C         8.03164227558697   14.79988799961085    1.41424103051501
H         8.05884245679399   15.77163251055144    0.94410205497123
C         7.53395688967638   14.66137010180323    2.69720065545875
H         7.15670086111197   15.52269381405626    3.22990839655538
C         7.50842598082010   13.41859502456579    3.30663971064729
H         7.07906763082734   13.33069664422258    4.29576650843478
O         6.86586710612585    5.73887897166977    4.94796862905845
O        11.05052096964343    7.10990486926550    4.36635555271559
O         8.33176541018985    6.54243749170595    0.73323939760080
O        10.50470390971559   11.48956155812288    3.13830328673041
N         8.88931877940733    9.95669127418434    2.67266427970666
N         6.42509477659829    9.03262687840249    3.00318289323961
N         8.18600708580361    9.50618720743535    5.16546997251337
Re        8.25326878647257    8.05218877484781    3.42958501336383

