45
CSD_code = DAFHIB | q = 1 | S = 0 | Stoichiometry = C9H24CoN8O3(1+) | MND = 6
Co        1.48841615484819   -0.21435554998552    2.84748266307727
O         1.64253762699341   -0.47018938706705    1.01913782674018
O         1.54672098959129    1.41965592850728    1.99746638093591
O         1.74612654192866    1.38613971695324   -0.24164196290127
C         1.65196191040066    0.84484002993045    0.82635530658406
N         3.40341719475177   -0.10375762900802    3.07977662494429
N         4.29712416780175   -0.89516933033276    1.11772848598223
C         4.41476913386836   -0.26309374895201    2.28284505775929
C         5.78931720176465    0.20229929571409    2.66517205488335
N         1.26187851682202    0.37252983240947    4.69948769803965
N         0.75415970877345    2.57916055412669    4.35317440776553
C         0.95402066977169    1.54734495360982    5.16070624114798
C         0.79236322879285    1.80661693630942    6.63197824100964
N        -0.42187718506430   -0.15899988737977    2.57445274243437
N        -1.38304894271862   -1.55307993765474    4.11301376842221
C        -1.47411024167115   -0.68253089716441    3.09977117873534
C        -2.85902826525195   -0.35279329321092    2.63205546279450
N         1.55376828921915   -2.09644488707101    3.40496558345299
N         0.84536306909918   -3.08135284642919    1.46357129875358
C         1.39762215266229   -3.15716702562754    2.67175535957085
C         1.76644531308558   -4.52708048405890    3.16149376340359
H         6.54011952046114   -0.51337741500010    2.33925409437788
H         5.98881309191421    1.15222943474454    2.16974754026228
H         5.87976311621863    0.35065047495594    3.73783982594206
H         3.66481368849383    0.38054771409885    3.93340671700668
H         3.34643927887400   -1.00321801317399    0.76018391427305
H         5.05577475408825   -0.85963816076787    0.45771801959947
H         0.88104088134279    0.89404617846311    7.21471233878018
H        -0.18061682336546    2.25302061044369    6.82617405788154
H         1.55382344513247    2.50857948259482    6.96799691868791
H         1.38268773371684   -0.30605548810077    5.44426927328850
H         0.57258091401810    3.49503342672771    4.72415345385109
H         0.94159556511287    2.46265314362103    3.36114516968773
H        -2.85230272258015    0.47346634796851    1.92731299437459
H        -3.29653413012644   -1.22114941362134    2.14111371385207
H        -3.49084499892904   -0.09028021703252    3.47801319593977
H        -0.63946373295460    0.49632124676879    1.82718332457365
H        -2.19903112073267   -2.02433801067170    4.46003888915285
H        -0.46532800382151   -1.86842407616779    4.38147811178847
H         0.99240543337237   -5.24639419506842    2.90451969466178
H         2.69044215427102   -4.84277565143739    2.67860941139012
H         1.92232537177342   -4.54260245360094    4.23677460713181
H         1.99906670249830   -2.31066398432400    4.29240170868714
H         0.83252651371211   -3.89103613141117    0.86718328884213
H         0.79085613203932   -2.16266719362805    1.03352155243204

