79
CSD_code = DAFLAY | q = 0 | S = 0 | Stoichiometry = C39H34CuIN2P2 | MND = 4
Cu       10.83722638227128   -1.73036075297266    2.41658845277281
P        12.64896232513616   -2.40581082433385    3.57094376711985
P        10.44359250262246   -3.95000031954130    1.29509244389341
I        10.65862511544669    0.24608541103548    0.90281733030749
N         9.14386252479328   -2.08004416490002    3.52476670155977
N         7.56926536294280   -3.27662877800327    4.45266288660361
H         7.11209021516012   -4.00278271674972    4.97957372356639
C        12.70390260524980   -1.67330211018642    5.24239199740015
C        11.68915904096317   -0.79138927218759    5.59461506744315
H        10.89586838830028   -0.58814564042996    4.88619953972667
C        11.69841497811381   -0.18121863793818    6.83666239271436
H        10.90973189376341    0.50608691814125    7.10583388499522
C        12.72203672979810   -0.45004867793817    7.72907798832866
H        12.73231036457384    0.02551491211082    8.69885318930203
C        13.73944548036173   -1.32520128119252    7.37849451350381
H        14.54008338434101   -1.52869366676402    8.07498875064538
C        13.73686855119019   -1.93350143854047    6.13817825054111
H        14.53276063276917   -2.61076550470430    5.86055438315812
C        14.28751553947027   -1.86207506206020    2.97462735000041
C        14.31837088951452   -0.62808607042862    2.33003397425906
H        13.39849373767613   -0.07837319091030    2.18584201858770
C        15.51408377944418   -0.11477351059344    1.86425103673488
H        15.52658609861403    0.83964230456459    1.35989890694207
C        16.68702502746412   -0.83023956904613    2.04024971080039
H        17.62330745760303   -0.43457033340021    1.67484883566082
C        16.66047791476954   -2.05713877545555    2.68378249988228
H        17.57569190793325   -2.61511672071217    2.82239703162220
C        15.46760564015808   -2.57649123003416    3.15283138288455
H        15.45760678980388   -3.53871700181919    3.64662586569430
C        12.90817980052183   -4.17543428027142    3.89033135263686
C        13.39965465604136   -4.97423283087854    2.85767721954833
H        13.68968394112230   -4.51837601008154    1.91945467227079
C        13.53940876446132   -6.33646418433139    3.03667222067154
H        13.93855562226652   -6.94540363427028    2.23889612758201
C        13.15635310236474   -6.92247845857235    4.23233084260928
H        13.26653409481445   -7.98759184354000    4.37137564842748
C        12.62401673387030   -6.14151271456839    5.24513768761158
H        12.31231009887132   -6.59919852270767    6.17358628199727
C        12.49424112462139   -4.77518154466545    5.07626417821397
H        12.08597433532130   -4.16506790709282    5.87253192092652
C        10.64627530744010   -5.77068125431509    1.38425021122276
C        11.23422792140448   -6.54547036094467    0.39207065246044
H        11.57907706518475   -6.08448152875138   -0.52239801051845
C        11.37859047250334   -7.90960130907953    0.57175184334877
H        11.83171474756888   -8.50526050571409   -0.20795250606810
C        10.94543343904684   -8.51450370338716    1.73940814046979
H        11.05619919599245   -9.58078206206654    1.87145077528310
C        10.38180254418801   -7.74531681033977    2.74410500486375
H        10.05709789297974   -8.20860198313549    3.66518053215613
C        10.24644626542489   -6.38211438537372    2.57102857501104
H         9.83771951342525   -5.77361723703903    3.36844587838010
C         8.67569839567375   -3.82970561218999    0.85151981260381
C         7.71870228883513   -4.72857197416277    1.31113162584801
H         8.02041413523749   -5.61910664512422    1.84566844164170
C         6.37590050774963   -4.50131704860411    1.06754328276451
H         5.64196466592051   -5.21329889036614    1.41993435244303
C         5.97086583717287   -3.37259166963177    0.37525612602500
H         4.92088615634318   -3.19889524665680    0.19028369308394
C         6.91829458793117   -2.47100343874498   -0.08139180380487
H         6.61344888175123   -1.58743529726002   -0.62195415218312
C         8.26016491911323   -2.69353036757872    0.15829482367670
H         8.99208045311768   -1.98281811403985   -0.19634185887233
C        11.23049442414616   -3.56244545868368   -0.30269990010595
C        10.66899100288239   -3.90510421801760   -1.53024939331761
H         9.72284094631211   -4.42942261164691   -1.56271266297174
C        11.31634495031316   -3.56174394301673   -2.70211916257309
H        10.87541931169376   -3.82356301669196   -3.65326068629704
C        12.52114323032582   -2.87699622549620   -2.66150717017259
H        13.01545749513733   -2.60265504077054   -3.58159504717541
C        13.08447117218872   -2.53476403483968   -1.44416270890922
H        14.01595841285097   -1.98964713051088   -1.40658210170966
C        12.43993920901959   -2.87723634950601   -0.27025843162892
H        12.86509490987854   -2.59005968026111    0.68546096115844
C         7.94306433332049   -1.53598777429073    3.19619919272463
H         7.87990450377717   -0.66238212680099    2.58017413085659
C         6.94867125505961   -2.27128965246783    3.76730258613219
H         5.88487046154278   -2.16832819941882    3.73671785884581
C         8.89617137667537   -3.12133789045337    4.27564714384392
H         9.64357427473911   -3.75534356596802    4.71251792171763

