127
CSD_code = DAFMUT | q = 0 | S = 0 | Stoichiometry = C51H63N4O5PSi2W | MND = 6
W         7.84866140004837   -0.05919144634937    0.75957752637782
P         7.47958789819257    0.70534621142294    3.06969653027144
Si        7.90257930103391    1.31918766271102    5.61268977550072
Si        7.56256683372661    3.97059955460237    3.56180190213309
O         8.43618152605046   -2.95574263962621    1.83412215997524
O        10.92984869431928    0.46925240898864    1.08569929630796
O         7.01329007822515    2.68041463997109   -0.52850619167054
O         4.86257792722235   -0.82578468351549    0.15005787476081
O         8.48972883702540   -1.06579770435953   -2.12849060224492
N         9.39135605775124    1.04043238590823    6.44825510982669
N         7.18069632096643    2.08691251878182    6.97153270671053
N         7.87124025596117    4.82233409559347    5.04330342356753
N         5.92557940498736    4.55786728711729    3.50936148487531
C         7.09598591008932   -0.02430532754980    4.55027067802272
C         8.15567271914250    2.18616193169072    3.90455732182039
H         9.21952260776570    2.23399389670526    3.65514039033279
C         6.47522224964698   -1.29538040239975    4.79796414470493
C         6.53059559276622   -1.86849522447002    6.07383601727365
H         7.03997747227978   -1.33163474497880    6.86336296867390
C         5.95612022128513   -3.09893908084035    6.31688305103983
H         6.01146707079333   -3.53194084636602    7.30492683322476
C         5.30837669641570   -3.77988686769444    5.29737400347418
H         4.86012889182718   -4.74318711914236    5.48858630599460
C         5.23270137466300   -3.21660218770763    4.03227208759232
H         4.72175531634283   -3.74021033115876    3.23757041648311
C         5.80627294635084   -1.98708474972540    3.78460015620652
H         5.73644681051091   -1.53331697774475    2.80350059630066
C         8.39685658538307    4.59264439179703    1.96730103133479
C         9.27617697444514    3.81240939040701    1.22293501036114
H         9.51907980109767    2.81480723156928    1.56205535894179
C         9.84606949306213    4.28249748952232    0.05373514835147
H        10.52107034156604    3.65163333599137   -0.50658150351464
C         9.54638465406651    5.55646212056117   -0.39675383315384
H         9.98691065255161    5.92623805796880   -1.31078322972708
C         8.67654514590966    6.35289644218834    0.32973512523992
H         8.43808286408597    7.34802469989355   -0.01656801579740
C         8.10968742207788    5.87359525375287    1.49579004477959
H         7.42750599063372    6.49769220575913    2.05604569305497
C         9.32320253815366    1.55949423404234    7.73505998488937
C         8.08669579615131    2.16957955988331    8.01813929582266
C         7.90107595683358    2.81030746838801    9.22929243275392
H         6.97530222321307    3.31522356818089    9.45266957427052
C         8.92214988795150    2.82220984943054   10.16886422202545
H         8.76898577205257    3.32341247132413   11.11262818395031
C        10.12450645406569    2.19956339283002    9.90112226027395
H        10.91523330355114    2.20487150892146   10.63590669210927
C        10.33076990289559    1.57056367887923    8.68149498393972
H        11.28267599792400    1.10352903346440    8.48592747485962
C        10.64066399706094    0.61304520111691    5.86679757561273
H        11.45397233017921    1.11301860373765    6.39926522100164
H        10.66609614417007    0.96378758907557    4.82926398101986
C        10.91687343838986   -0.90823771124047    5.84573779908606
C        10.62213369248179   -1.54030987529433    7.20553204916082
H         9.60900736755874   -1.30679236196544    7.52227314882562
H        11.31089870150991   -1.17570342953422    7.96310995657417
H        10.72423905745883   -2.62125365033459    7.14433996066757
C        12.39492163360892   -1.10313047401718    5.49306771315688
H        13.03890228226313   -0.63755520145861    6.23629814660832
H        12.61733938799831   -0.66440538465814    4.52263068443723
H        12.63512743146020   -2.16268807362594    5.45180323865539
C        10.06200619584519   -1.59093010049472    4.77682758203364
H        10.37066010821407   -2.62650170711694    4.65207939495918
H        10.16351791661427   -1.08882857839779    3.81330349725679
H         9.01464659689159   -1.58374333334984    5.05856969297100
C         5.90548710888323    2.75664159968079    7.01495303329181
H         5.66658196147852    3.07672594959375    5.99805165975737
H         6.00924684877658    3.66279493555042    7.61699856453985
C         4.71087833752245    1.92710317623837    7.54616712718868
C         5.08970272036823    1.10584236999839    8.77867475245571
H         4.25175212991660    0.47949561658571    9.07697227850538
H         5.34812482513543    1.74629533826359    9.61685951171102
H         5.93919464338354    0.46283218553542    8.56398595287379
C         4.20946611464277    0.97853935470994    6.45672706528568
H         4.99320421546422    0.29040590665438    6.15756750321191
H         3.88023683816607    1.53476074733534    5.58319333448938
H         3.36784655353101    0.39440119003996    6.82306187140828
C         3.59394613805031    2.91162052782865    7.90539271772129
H         3.35069972923499    3.54337931136178    7.05369998829688
H         3.89480667050407    3.55653764314605    8.72806284533561
H         2.69694085924761    2.37420643074904    8.20366626132494
C         6.77875442614756    5.58067774505528    5.42870353130203
C         5.68231527452311    5.44392808687109    4.55492354285749
C         4.53607011401317    6.18432840318073    4.77310297409490
H         3.70331503558355    6.13598294746873    4.09188846943730
C         4.44917912566956    7.01299471492508    5.88439569036176
H         3.54807634433218    7.58426774519395    6.04904919519729
C         5.50192899677117    7.10318357969128    6.77109525400765
H         5.42660856575594    7.73741955184247    7.64166218062366
C         6.67382734646614    6.39544543837961    6.54110167645377
H         7.49370547400183    6.49910391882430    7.23435653709545
C         9.05053856742473    4.73419157614006    5.86333687917963
H         9.41927465423545    3.70618129449594    5.81853159307782
H         8.76700152817248    4.92194684650914    6.90099611450326
C        10.22314895441588    5.66827634920450    5.47984394636904
C        11.14225059697251    5.77703155552377    6.70015035827025
H        12.03162916501076    6.35352031988527    6.45655014652412
H        11.45116920347368    4.78836956961779    7.03364130527537
H        10.63302526409745    6.26908034704718    7.52573314687341
C        11.01200488888468    5.06477310878616    4.31623199172386
H        10.38649934096610    4.97405884165138    3.43284165338288
H        11.39072144717267    4.07913033219721    4.58045287384235
H        11.86036384830295    5.69856248982849    4.06662652971213
C         9.72222447447943    7.05552271990701    5.08041969403007
H        10.56231037841392    7.69152512280706    4.80996301161625
H         9.18477263851499    7.52738041738724    5.89822434648603
H         9.05436831377306    6.98662780608698    4.22544566387442
C         5.03960157468994    4.47194071517645    2.37277961446758
H         5.66153612909497    4.28484222439089    1.49144306466498
H         4.55307404590664    5.44124654936819    2.22902578904815
C         3.95684491086902    3.36930787440942    2.41667066760424
C         4.62731377477586    2.01399499120665    2.61633435445663
H         3.89197681680486    1.21164674755462    2.61263815313932
H         5.15739325476609    1.99092306814661    3.56785716170323
H         5.33931298823272    1.83143533031751    1.81001990678422
C         3.23032779754301    3.37733810244625    1.06878943353578
H         3.92497895998603    3.17525742626434    0.25631765757878
H         2.76395405565730    4.34308216890941    0.88688264078609
H         2.45510285938764    2.61489029157183    1.05404581776837
C         2.94408007362686    3.59587998007303    3.53923433972928
H         2.26020937255487    2.75114438019909    3.59896922340609
H         2.35301247765311    4.48964933259321    3.35436208857714
H         3.44713955764210    3.70273058350859    4.49683878807242
C         8.21953329687843   -1.89557400800386    1.47205852036460
C         9.79741048648990    0.33685060752575    0.98753841296023
C         7.38754719321266    1.72906500253669   -0.01509455079906
C         5.93289830813104   -0.54046988371445    0.43075289968751
C         8.25183794979794   -0.70050375314995   -1.07122830135269

