120
CSD_code = DAFNAA | q = 0 | S = 0 | Stoichiometry = C46H61N4O5PSi2W | MND = 6
W         5.65996178659725   14.08248801122200   -3.80566043558732
P         5.03286852766213   15.20170389156862   -1.69890122750308
Si        6.28263215548546   17.15978825575348   -0.46549892801312
Si        6.28253438428752   15.15749112445282    1.42824133933422
O         6.12331925308825   16.85649927428022   -5.20558582001118
O         2.66157658856219   13.73378648084382   -4.66887951017722
O         5.44948418432241   11.38265357388308   -2.22286589376314
O         8.72174432412575   14.05382076360929   -3.14517538905757
O         6.43359192840748   12.60725262265739   -6.45485050114459
N         7.56490741450182   18.25463531608630   -0.07870480966506
N         5.82840945463994   17.01992459971932    1.40606782913066
N         7.78329903063849   15.06512046829605    2.27770499601737
N         5.40440381818868   14.40081677589750    2.70313642174480
C         4.82651273828512   16.99015834148716   -1.53580573840886
C         6.40249681523515   15.23175502195852   -0.43052069922547
H         7.23829994468501   14.67565087652467   -0.83793525639348
C         3.53677879058897   14.47703836164661   -0.90127478570862
H         3.68843610502328   13.41629242077993   -0.70687621617231
H         2.70931391513062   14.58187551561786   -1.60402801281302
H         3.28105182039946   15.00511579099687    0.01620866924113
C         4.27877744928144   17.77848227056192   -2.60136682686103
C         3.35462654277773   17.19860585016099   -3.47879279129357
H         3.07912406653086   16.16263777704374   -3.32410986115407
C         2.79240320496066   17.91970899082712   -4.51051300690159
H         2.08919610699737   17.44089738868258   -5.17754780611068
C         3.12520404742248   19.25227106184774   -4.69347244603716
H         2.68831430882306   19.81905537281499   -5.50182717682510
C         4.02930180691075   19.84882396251613   -3.82784736338058
H         4.29825030570277   20.88737213051450   -3.96312780202306
C         4.59956286676168   19.12664826411415   -2.80125110570665
H         5.31878872008764   19.59627342487933   -2.14285257871564
C         7.74217969911574   18.44230285464743    1.27826559880760
C         6.81678164977884   17.78196140671915    2.09739744889956
C         6.93375250635406   17.82050575249988    3.47186672047784
H         6.23876493297993   17.27162760391197    4.08811001012483
C         7.94930991568512   18.55940715764973    4.05791005069877
H         8.04374663858288   18.58290944125892    5.13200356781698
C         8.83364373557047   19.25935042223525    3.25742887586733
H         9.61940852236320   19.84698725084125    3.70779406196531
C         8.73832266791529   19.20496440671598    1.87734316220341
H         9.45111711323739   19.74552095440569    1.27771580892955
C         8.20154983938874   19.08638272912753   -1.07346751468140
H         8.49098338402288   20.03563777842790   -0.61638585587941
H         7.44985839875888   19.29970024267978   -1.83681511984969
C         9.41813481855189   18.46379261654689   -1.78979117560418
C         9.04264241664368   17.10119609659063   -2.36901735944409
H         8.12685664526202   17.16452408246551   -2.95460762100558
H         8.89223825700647   16.37562409787172   -1.57395147506257
H         9.83737890270726   16.73393270458059   -3.01412525787594
C        10.60376897666278   18.30239435372131   -0.83662969521628
H        10.96930022317935   19.27261795703895   -0.50641314077826
H        11.42080619203813   17.79234427760423   -1.34252449188242
H        10.32452638631848   17.71961368894074    0.03787830264704
C         9.80884403437859   19.40657856591076   -2.93119119711019
H        10.01905459153458   20.40567306924187   -2.55486379699228
H         9.00507405776642   19.47531274237638   -3.66015667874885
H        10.69818132824248   19.03779074086390   -3.43610534727439
C         4.43482247285037   17.25937680734494    1.81191361578844
H         4.25176683570253   16.75765886569383    2.76736461831586
H         3.84438523826537   16.75136621145503    1.04466626694636
C         3.88764951734080   18.70208569974812    1.92072869579224
C         2.36579398378738   18.58439210350479    1.75248821519246
H         2.11704616950699   18.22504641703622    0.75669999697452
H         1.89599462027132   19.55489077698510    1.88873264233188
H         1.94731342446502   17.89860210999677    2.48655567741365
C         4.42526706084285   19.61958348736430    0.82727175242267
H         4.19958206414649   19.21447761189387   -0.15416449113003
H         5.49856825767892   19.75886067830244    0.92145570413112
H         3.95417057709456   20.59667169818893    0.90863429148385
C         4.16906397980407   19.32664012227220    3.29102246217879
H         3.84902357258803   18.66638537623463    4.09475164180709
H         3.61909124073640   20.26052178403316    3.38546724925602
H         5.22464780305057   19.54612769249822    3.42002447725411
C         7.52963179158908   14.79989383526924    3.61858023257620
C         6.20219900987604   14.40109088964091    3.85417476937126
C         5.77040607629539   14.15000400585764    5.14274627652303
H         4.74971592157738   13.86221026844487    5.33818975258409
C         6.65712127113807   14.28514226050257    6.20086996960870
H         6.31772132252627   14.08744070714370    7.20597158318038
C         7.95906732610835   14.68732739990185    5.97190647546612
H         8.64113854888536   14.80763693889231    6.79964579779197
C         8.39881779362006   14.95151815743401    4.68407627695392
H         9.40919295473506   15.29157131253274    4.52804881981768
C         9.11031628375992   15.33816154003187    1.78585997900493
H         9.63974876872552   15.95518198584390    2.51846550707543
H         9.00132629559529   15.93281884568927    0.87589391847501
C         9.97443447337750   14.09957412468130    1.44186138231445
C         9.37935112576501   13.34655562322212    0.25207163391552
H         9.38613570184590   13.96597535087915   -0.64135317716398
H         8.35846787333200   13.03543669907238    0.46225869937713
H         9.96713739155664   12.45610103768898    0.04141843795663
C        10.08989741590839   13.13912353257515    2.62596768567710
H         9.10891733755611   12.80052295724227    2.94970335135238
H        10.58704306416603   13.61163370071369    3.46864406607321
H        10.67308799707846   12.26736716898724    2.33699951205182
C        11.36943096353927   14.60620262927471    1.06354270700598
H        11.31722329490762   15.27692871472660    0.20920996781368
H        12.01254022774751   13.76997897472148    0.80111236263797
H        11.82689598530944   15.14108727758013    1.89335879339434
C         4.22579755616334   13.57436281912413    2.61507957325248
H         3.63012609192626   13.95617677586371    1.78672298651505
H         3.63328458721636   13.68822415359884    3.52726298145402
C         4.48527717165211   12.06554106253580    2.37242065289103
C         5.55912558462084   11.86108262848549    1.30509782200689
H         5.61754208041489   10.81065434481996    1.03138161914261
H         6.53263564626576   12.16653982028794    1.68174448230303
H         5.34358538712170   12.43465080794542    0.40677965445142
C         3.16507325409037   11.44545118373172    1.90374941404578
H         3.27427057777339   10.36986446144434    1.79104694765675
H         2.85774966499153   11.85710339881638    0.94536322985327
H         2.37424221068815   11.63364327081589    2.62692229631803
C         4.93013479730842   11.36392690338348    3.65783642642048
H         5.08466732458424   10.30448154162592    3.46551274172940
H         4.17415119028573   11.45923761948222    4.43416008037144
H         5.86239694961527   11.78181390705488    4.02840686570661
C         5.88018994240892   15.85912836598394   -4.70548871539417
C         3.73872632039031   13.91984227761722   -4.33244238552851
C         5.51250873224123   12.35578692520130   -2.82597463160759
C         7.59560106711876   14.12001196995173   -3.35182578581980
C         6.14886258829929   13.15740540502298   -5.49194900061862

