97
CSD_code = DAFPEG | q = 0 | S = 0 | Stoichiometry = C47H44ClOP3Ru | MND = 6
Ru        1.15597686870028   10.86714453831355    4.17632329366759
P        -0.94810164376104    9.94923849323142    4.04053039326266
P         3.16577595143086   12.07416748643497    3.94738715830125
P         1.65088764562866   10.01326967435043    6.34199605372513
Cl        0.43193472443621   12.73764429519172    5.47979729944061
C         1.63863914308136    9.44979129269957    3.12719704825205
O         1.83942890985391    8.54555370695845    2.43852928219709
C         0.48152994574660   11.86587398487873    2.39712988047575
H         0.33361944035433   12.91162189027666    2.70779555747176
H         1.22768612224933   11.89781190622264    1.58822184693489
C        -0.82216690894408   11.43922996633891    1.81210600601108
C        -1.69368084683109   10.61410252272557    2.52889434883518
C        -2.97951827280969   10.32283617316834    2.05286640110812
C        -3.95151219433986    9.48579755479145    2.82636590990558
H        -4.46676112854121   10.09964854745663    3.56633705359156
H        -3.44734317473230    8.67696132145644    3.35069592991249
H        -4.69948035474006    9.06005838279498    2.16019365276324
C        -3.35342403237806   10.84317178790322    0.82325208396941
H        -4.33913046514208   10.62608257159287    0.43647751420297
C        -2.48138595753940   11.62369830349711    0.08016121200190
H        -2.79171414623066   12.00430115047130   -0.88246702421149
C        -1.22768143841496   11.92491079577975    0.57045170074794
H        -0.55460073907935   12.55083179619441    0.00116054345010
C        -2.24671457566465   10.20845332615581    5.29024429027161
C        -2.82709594340050    9.20791011784072    6.06260458614897
H        -2.54679775657127    8.17325320083605    5.91659111420813
C        -3.78415016293188    9.53568635717742    7.00641210991126
H        -4.23728135243247    8.75565721929263    7.60177974468352
C        -4.16344730003493   10.85562723885632    7.18930373623407
H        -4.90798441331893   11.10425527459379    7.93149941063805
C        -3.59195736826991   11.85418685764800    6.41684045191283
H        -3.88884536304861   12.88346287002451    6.55469034212347
C        -2.63860207322421   11.53348202566204    5.46931799438992
H        -2.18146278275659   12.30608774941034    4.86518103638971
C        -0.89886065638940    8.14869465121000    3.74907708910399
C        -1.14856917232533    7.59539516417333    2.49719577507355
H        -1.46789184128547    8.22857349113661    1.68164562913518
C        -0.97274373286894    6.23915829810905    2.28948602044703
H        -1.16867057919038    5.81956597155211    1.31344219424568
C        -0.53376291180183    5.42313293506628    3.31841603009766
H        -0.39088154004983    4.36609403262901    3.14870950308696
C        -0.25876576492862    5.97003802102047    4.56091822553361
H         0.10828957278437    5.34678518284863    5.36383549152095
C        -0.43496609752546    7.32393573618370    4.77005849662269
H        -0.18664995056812    7.75557208812922    5.72980147745193
C         3.28188082242861   13.26167258911824    2.55712569644128
C         4.12896623159826   13.11876346838367    1.46643225472956
H         4.77918593434610   12.25991256949619    1.38751340660131
C         4.15298453496434   14.08506912582017    0.47436824565238
H         4.81675237614627   13.96488291691574   -0.36985257016901
C         3.33489166672807   15.19773105621743    0.55963578310914
H         3.35455131879651   15.94555560304935   -0.21958666017080
C         2.49293637129742   15.35037827065666    1.64978082100905
H         1.85423918038498   16.21862914192286    1.72375082408022
C         2.46819774614227   14.39096196857839    2.64302810053278
H         1.80813640289808   14.50953234210383    3.49213166473695
C         4.63144592786529   11.02039470753216    3.69709389571823
C         4.60485955060931   10.14728423373642    2.60944053429113
H         3.75565099078218   10.17008998046964    1.93846803860234
C         5.64198149598118    9.26198820973436    2.38883677011866
H         5.60728257684959    8.59246079043153    1.54184325020097
C         6.71905575321980    9.22904041092334    3.26092516086369
H         7.52715653538569    8.53107412133330    3.09802118399777
C         6.75512765327336   10.09380563329439    4.34057441341927
H         7.59455469762256   10.07316066296048    5.02084302674573
C         5.72072598372595   10.98859501418259    4.55912282002742
H         5.77024442735869   11.65382598293566    5.40711345181301
C         3.71737021553653   13.24276011304205    5.24927225289187
H         3.98512792845002   12.71183556111933    6.15838045395341
H         2.88749065273151   13.91084298233156    5.47832809246202
H         4.56722970453056   13.81753629241761    4.87778949436369
C         2.89792068740176   10.81976210606583    7.41016233960745
C         2.53761225114122   11.95577032908587    8.13321172650433
H         1.54179981749506   12.36154079781963    8.03558354497164
C         3.46432643396163   12.59093184567474    8.93974702549531
H         3.17620268634932   13.47124221226955    9.49552544893210
C         4.75847282769830   12.10439462878534    9.03267183503186
H         5.48029731906077   12.59936815349367    9.66571640895651
C         5.12508494922799   10.98392613212856    8.30545415668773
H         6.13459322285349   10.60336686862226    8.36866075004820
C         4.20323721798317   10.34451084419306    7.49499894959717
H         4.50125090513011    9.47435589356021    6.92730950543760
C         2.27992524723457    8.30022526353847    6.42682712069231
C         3.17654137192276    7.91258436410987    5.43537334254059
H         3.45634667248843    8.62748336454452    4.67041973581631
C         3.70563030778053    6.63643003080608    5.42277691006035
H         4.40033684451380    6.35067393757811    4.64668643907257
C         3.33713526579801    5.72794950675176    6.40148702385947
H         3.73945081470660    4.72554546978037    6.39030897004858
C         2.45177057342758    6.10814416944624    7.39603355294278
H         2.16702206061030    5.40269617619914    8.16392566791830
C         1.92832953980499    7.38919272816917    7.41549004542966
H         1.24252549150094    7.66936435631822    8.20152061862277
C         0.25055572377735   10.02304628604037    7.53049284514699
H        -0.46291642751037    9.23793488277538    7.28255935487548
H        -0.25940484225943   10.98303337243171    7.43684205982853
H         0.61186067603369    9.89948657887294    8.55218032059385

