79
CSD_code = DAFTUA | q = 0 | S = 0 | Stoichiometry = C30H43ClN2O2Pt | MND = 4
C        13.16593265156154   -1.36809990172446    2.43584264112292
C        13.38557948060981   -2.21932647403236    3.58804867761577
C        13.65978592952405   -3.57940331950646    3.69700323453105
H        13.73835710434556   -4.20080941773054    2.81732256502254
C        13.83153077063307   -4.12553080051652    4.96440928936985
H        14.04513229576487   -5.18079680058181    5.05069993143382
C        13.73869505544707   -3.36498314587497    6.12506788986063
H        13.87862985533966   -3.82315368749476    7.09288274043410
C        13.46181651743882   -2.00581737063722    6.01192260098177
C        13.28907897440277   -1.44832971072459    4.74569499834970
C        13.30027256984188   -0.96711504133104    7.00966337680830
C        12.75207151806761    0.55223833110326    1.34225034855649
H        11.71367633427199    0.90316880112621    1.29126283070035
C        12.95788141028444   -0.61675990556290    0.32479542958917
C        14.17617941865512   -0.50451708028876   -0.58689269054992
H        15.08866278123344   -0.44470882373180    0.00070998784870
H        14.10074738645820    0.36898845930997   -1.22569935673269
H        14.23260437968159   -1.39489539504119   -1.20867538881110
C        11.69231775127813   -0.86562348010986   -0.49084916530052
H        11.81686310194723   -1.74609480825910   -1.11636430526357
H        11.48877977547276   -0.00574936867244   -1.12309133443371
H        10.84370994711266   -1.02836249153983    0.17012281591797
C        12.90787046223173    1.10963941650558    7.77658858854583
H        13.72555803998681    1.83979460791859    7.72999063015421
C        13.15205399410002    0.12907945563561    8.96944214905167
C        11.96838616377699   -0.09582080508088    9.90548774035671
H        12.25100223158549   -0.82662181171917   10.65956486210078
H        11.11667737401842   -0.48903823228061    9.35647487369408
H        11.68457804432108    0.82840134244783   10.39739891226692
C        14.39844981459813    0.52203811676809    9.75757148711555
H        14.61717195015148   -0.22968086452419   10.51193166018853
H        14.23679952795673    1.47936561481139   10.24534586062422
H        15.25525849744594    0.60353087318676    9.09218624029830
C        13.66429668469562    1.77525740186191    1.22289139016727
H        14.68833454715400    1.46196039194500    1.01886212284679
H        13.66085594561459    2.26622200340365    2.19968519661971
C        13.19919152986550    2.79107659064958    0.17369885272068
H        12.93255444463463    2.26672405672761   -0.75259919895821
C        11.97790029460120    3.57406397196145    0.65954869484348
H        12.22458980795615    4.07000433045838    1.59950807155055
H        11.14610244944659    2.89624222735362    0.85926614214179
C        11.54409656302683    4.61035587940986   -0.37260655506413
H        11.24407260741202    4.10465835416128   -1.29481312762135
H        10.67943679074531    5.16161792318419    0.00181233793498
C        12.68477173024220    5.57553573081005   -0.67552186634666
H        12.94437272738354    6.12224156145935    0.23313816508814
H        12.37184784820765    6.30218503867047   -1.42862962268405
C        13.90583465178377    4.80648959465239   -1.16776929545597
H        14.72956049343588    5.49673731050027   -1.36228080945005
H        13.66293915748387    4.30418272570957   -2.10800046681863
C        14.33496105447937    3.76957463144046   -0.13430018654368
H        14.62272001250279    4.27550912982765    0.78921548426261
H        15.20668156822052    3.22251459357723   -0.50290483514038
C        11.58853537878287    1.88441271205406    7.74367884148218
H        10.76322763941991    1.23375244109424    8.03352081246666
H        11.42340653642079    2.17910368786974    6.70398366453282
C        11.59510853710777    3.15170249246709    8.60560313690394
H        12.01501215084127    2.92277318055035    9.59317447622260
C        10.16085067874808    3.65172718115551    8.79369090674039
H         9.72820113344792    3.85432820028655    7.81214231406748
H         9.55742398380930    2.87627215763062    9.27285249639543
C        10.12410220914905    4.92320520721432    9.63594175888865
H         9.09211996414067    5.26335863361789    9.74601105773075
H        10.51285190724093    4.70921980145969   10.63517504354798
C        10.96833379946808    6.01531532966615    8.98847863588274
H        10.54698209591696    6.26741184923855    8.01336944179921
H        10.95238954764397    6.91612725580060    9.60603275686502
C        12.40199840099050    5.52999060492547    8.80595467141386
H        12.84353903773704    5.33067796100338    9.78654894175149
H        12.99929169687342    6.30556099017405    8.32280428868255
C        12.43454571253352    4.25821751403936    7.96394680214685
H        12.04586697298336    4.46586517212836    6.96588507354022
H        13.46950846106587    3.93175458094377    7.84765291426553
Cl       12.43271403083469    2.69099483272150    4.40886067903757
N        12.93378197140935   -0.10121104307741    2.62730208178256
N        13.02496730206207    0.24317097301624    6.61604552701068
O        13.18271541110727   -1.77293389503330    1.17524120110912
O        13.41165551792936   -1.14285595988949    8.31735132480242
Pt       12.90253790391261    0.43879840934774    4.59174053538327

