35
CSD_code = DAFVAH | q = 0 | S = 0 | Stoichiometry = C14H14CdI2N2S2 | MND = 4
Cd       -1.46005376687518   14.55745793933206    5.07457904976513
I        -1.76411242718270   15.90995707517479    7.43989309312994
I        -3.20502706458886   12.60461653049546    4.41946272938798
S         0.76702465004173   12.84152038992612    6.16668276773338
S         0.27290599210466   16.13250901875003    3.62024489907962
N        -1.21406605494068   12.24077668711464    7.75114083322557
C        -0.38770720469140   11.81664881326331    6.79779773869240
C        -0.48349335466484   10.43417420331689    6.33473535469862
C        -0.96068265500617    9.42363798155239    7.17246885084443
C        -1.05554499839756    8.12697600951618    6.70744995883794
C        -0.69102270426540    7.82275875390268    5.40524414243914
C        -0.21294807662410    8.81883392407679    4.56949066690443
C        -0.10249166598165   10.11479814777277    5.03120336306551
N         1.46459101286132   16.24277076316532    5.95060088415840
C         1.12735683590476   16.88701011205183    4.84010559577421
C         1.55125639689392   18.27788816942871    4.67487621911131
C         0.78636818379414   19.15233066705915    3.90279576931746
C         1.17409897004594   20.46845225714901    3.74722865533404
C         2.33454908597145   20.92694359957900    4.34975761306987
C         3.10893457885130   20.06204200816416    5.10688060302208
C         2.72170219344477   18.74694463934003    5.27573650522463
H        -1.16560404982136   13.19949647286878    8.07981074032511
H        -1.98722041404134   11.67001863238184    8.05733797365680
H        -1.22311035492743    9.64270494350377    8.19742662320145
H        -1.41777977092057    7.34977712459205    7.36337303800179
H        -0.77786381829767    6.80922961574041    5.04423246451185
H         0.07059305035223    8.58602889718488    3.55470928162759
H         0.26120539852216   10.89731788827611    4.38060517992907
H         1.23646592039828   15.26082074429247    6.07504657602931
H         1.89336719066135   16.72771081367682    6.72352011771735
H        -0.11914467680574   18.79061970922452    3.43919294342731
H         0.56992163637391   21.13839253854589    3.15483964083448
H         2.63860355235249   21.95525271044880    4.22632845646675
H         4.02026900560970   20.41365252552088    5.56658491958040
H         3.35125940383362   18.07582969358707    5.84201675188228

