43
CSD_code = DAFYIU | q = 1 | S = 0 | Stoichiometry = C12H24Cl2CoN4(1+) | MND = 6
Co        2.28574361252838    2.31344529387569    1.13434041362969
Cl        0.12861991406510    2.31339769986212    0.75021143377297
Cl        4.50255665226352    2.31303216223982    1.49144051488589
N         2.12764661130795    0.89901506604517    2.51245671831178
N         2.50406535264724    0.93012277201753   -0.11931525931078
C         1.21180769567040    1.05345817429642    3.64800171158788
C         1.51907330712702    2.31341606153621    4.44722773800416
C         1.88723363997796   -0.35790299046260    1.79922472663618
C         2.74312701838829   -0.34185502282825    0.53966525200547
C         2.46952550002196    1.01904250883055   -1.38833346079433
C         2.18248698570796    2.31341348772935   -2.08624124921951
C         2.66681832256611   -0.15030386998638   -2.30186063996873
H         3.64325055454756   -0.60273199708338   -2.13269185669136
H         2.59927789540277    0.14572843600118   -3.34371311637443
H         1.90873745750268   -0.91178369873096   -2.11896248461048
H         1.29173895097014    0.17623845240898    4.30068452832201
H         0.19240940769404    1.10516398899319    3.25766090344460
H         0.90396498186636    2.31340603888222    5.34674339889199
H         2.56690426979255    2.31340793635539    4.75851235079020
H         0.83022597691306   -0.39371072766727    1.52057847352920
H         2.12250631128722   -1.22794705334202    2.42171461964147
H         2.49529444678903   -1.19472840913643   -0.09347012400467
H         3.80561575053836   -0.38846538854247    0.80375027683363
H         2.70313571488469    2.31341282098453   -3.04558126572737
H         1.10596732663228    2.31339325675289   -2.31258700538555
H         3.08275513663044    0.86277536157407    2.88652924383138
N         2.12761062578604    3.72784409007842    2.51246682189371
N         2.50398255271508    3.69674836823493   -0.11933509954923
C         1.21179341927991    3.57338703012173    3.64802201603291
C         1.88723486789698    4.98475713949869    1.79922257138266
C         2.74310374213630    4.96870789611886    0.53964583537050
C         2.46945303824216    3.60780677431248   -1.38834914189575
C         2.66677968023926    4.77713270515784   -2.30188787450005
H         3.64321273650868    5.22955938585609   -2.13270822825941
H         2.59924249293222    4.48109497334670   -3.34374108819315
H         1.90869709046870    5.53860955264966   -2.11899067487654
H         1.29174978240717    4.45059446664179    4.30071643941037
H         0.19239072286385    3.52169343611453    3.25769377972673
H         0.83022417945630    5.02059254646245    1.52059895834195
H         2.12255305691352    5.85478685741552    2.42170987620597
H         2.49526318854963    5.82157997075348   -0.09348376820135
H         3.80559878953199    5.01528733979003    0.80370134230022
H         3.08272124034913    3.76407710684123    2.88653239277915

