97
CSD_code = DAGCAS | q = 0 | S = 0 | Stoichiometry = C44H48BNO2Pt | MND = 4
Pt       -3.16367108901905    3.65133279486171   12.45957561011726
B        -3.14186433264965   12.93257542847424   12.53037275900956
O        -3.14119980824128    5.15492404352487   13.98009993649288
O        -3.14360345222607    5.13771100786666   11.11147340354363
C        -3.18506115704851    2.17675861134971   11.12845030251699
C        -3.17883362403861    2.26666472880355    9.74191145095967
H        -3.16132250811029    3.24047770743340    9.27410705788261
C        -3.19451587111576    1.12666472143222    8.95443641570216
H        -3.18939550103033    1.21449562342527    7.87694020126028
C        -3.21682487518274   -0.13219929249237    9.53820974228594
H        -3.22902703418883   -1.01595208218209    8.91677023918251
C        -3.22334280093907   -0.25636185417667   10.91311479654761
H        -3.24062491203314   -1.23935984974546   11.36119533522410
C        -3.20746705921549    0.88836949428561   11.70872093849067
C        -3.21230817156913    0.89676548666409   13.16243996334055
C        -3.23653969847975   -0.22356043442225   13.99055317199336
H        -3.25326261578029   -1.20869660306963   13.55349788325520
C        -3.23957944493623   -0.06788661690072   15.36335064507398
H        -3.25870892953334   -0.92919032936206   16.01364935893671
C        -3.21790116311653    1.21724150462485   15.89062992423771
H        -3.21947149922612    1.38267666965894   16.95593676746535
C        -3.19414392401873    2.29097363520504   15.02188932400999
H        -3.17661428042916    3.30847347974288   15.38932559891380
N        -3.19130224495689    2.14567395746929   13.69749701535752
C        -3.10970475362378    7.26596652374242   15.03904582710645
H        -3.11712330891026    6.63412842212528   15.92426003179387
H        -3.97644819814934    7.92237027343612   15.05312604849407
H        -2.21799850394536    7.88866011159656   15.04511029222670
C        -3.13066234409941    6.39999046410954   13.79768020367921
C        -3.13186979384652    7.05500025635979   12.55306828195192
C        -3.13776726011704    6.39005861426104   11.32066968941141
C        -3.13972132132886    7.24492139434140   10.07135999016402
H        -3.14363521750751    6.59942731859810    9.19681853738582
H        -2.25906033682413    7.88228703745866   10.05037398617226
H        -4.01847108155231    7.88541131614710   10.05572549462816
C        -3.13079036866530    8.54572963954443   12.54801741654910
C        -4.33904749221620    9.24234303614909   12.56459459923462
C        -4.33701658877468   10.63654283316734   12.57357098259350
C        -3.13302698540234   11.35680659955923   12.54963001801826
C        -1.92746323660373   10.63889763994871   12.53174181475524
C        -1.92391830138371    9.24414676443532   12.53484133983775
C        -0.61920293096026    8.49961566626374   12.52059483221752
H        -0.78290675613063    7.42579823215332   12.55241427362569
H        -0.00439251052609    8.78141385539831   13.37543121539280
H        -0.05137279824333    8.73246233171314   11.61947254771414
C        -5.64304773773651    8.49616226527454   12.57402588280092
H        -6.27577491284709    8.81677750069168   11.74704052591724
H        -6.19108494792146    8.68554615347376   13.49770556969663
H        -5.48023555191760    7.42517436081213   12.48897650818932
C        -5.66032524572578   11.34511334079703   12.63943469137915
H        -5.53370617587196   12.41232455147319   12.77442619609185
H        -6.25980822952538   10.96001232245047   13.46428711067236
H        -6.22412152758795   11.18363327805642   11.71996432788648
C        -0.60275154704897   11.34579525773128   12.48136497018501
H        -0.72592391485251   12.42153406054758   12.44355432856569
H        -0.03301914711558   11.02890788555890   11.60716633692835
H        -0.00904540957592   11.10413600526886   13.36338396502142
C        -3.94485708734663   13.69059506099556   11.40939909278084
C        -3.80598216076262   13.33048864438891   10.05453576980651
C        -4.49469575025406   14.01550992146666    9.06923071259781
H        -4.36478439344440   13.72841132168487    8.03431491616623
C        -5.35457564138995   15.06303339207608    9.37231491532589
C        -5.50688802170574   15.40902059656432   10.70229650473004
H        -6.17635807914311   16.21552131609343   10.97070444621017
C        -4.81882926059196   14.74657308788521   11.71125300752379
C        -6.08791744345276   15.78383809300466    8.28248332219963
H        -6.73950779641093   16.55169398088346    8.69239374835467
H        -6.69237878219419   15.08528608629169    7.70479580267444
H        -5.38223705095769   16.25548325944090    7.59897603007384
C        -5.08951218809167   15.19871938639936   13.12006381950855
H        -4.59891762105867   14.57087554129910   13.85533459660260
H        -6.16256216597498   15.19337852319541   13.31350782840920
H        -4.73583502713922   16.22094914551429   13.25655298420457
C        -2.89534877045662   12.21188327774672    9.63509201362383
H        -1.91264609746215   12.30907323521747   10.08953274253538
H        -2.77800480458035   12.20198968314597    8.55339632628298
H        -3.30769645842676   11.25309548546313    9.94454774202926
C        -2.34576948407724   13.74200618845995   13.62013365381634
C        -1.54807114228046   14.84797526097922   13.26924873645085
C        -0.84773944331711   15.54606856860355   14.23895401337856
H        -0.23509684660984   16.38815659404952   13.94589933861741
C        -0.91277314227069   15.19613453022875   15.57971464005174
C        -1.70024983125462   14.11200863610270   15.92959021691554
H        -1.76692284355586   13.82208824207448   16.96971917102107
C        -2.40252100901993   13.38566406521703   14.97974989904160
C        -3.24293969376741   12.23311010761536   15.45160525735692
H        -4.24992708200185   12.28377395303244   15.04401701964381
H        -3.30790559852257   12.23065306775969   16.53793990154539
H        -2.80481908351911   11.28945981824941   15.13142517174099
C        -1.40781713977140   15.29681277466239   11.84162601026096
H        -0.54753690204102   15.95463721813049   11.73454925178086
H        -2.29528789423480   15.84459327985766   11.52859356818906
H        -1.28657095103604   14.45529965502104   11.16451665418429
C        -0.14054979591952   15.96801221785762   16.60568793779834
H        -0.40137282775020   15.64919458987793   17.61194489872387
H        -0.34102251553464   17.03441854404118   16.51244432976529
H         0.92975826088485   15.81784650428648   16.46278833001070

