33
CSD_code = DAGFOG | q = 0 | S = 0 | Stoichiometry = C8H17B7Ru | MND = 11
Ru        2.96670476946818   -0.45312616244757    1.35253411911583
C         4.55978064595077   -0.14587228474426   -0.14722954114563
C         4.47909037722270    0.94597698629168    0.81919163633091
C         3.76111084699911   -2.04083989933938    2.73288237810887
C         3.44301562916230   -0.90395124644927    3.50330802671212
C         2.15625563806925   -0.32785691632352    3.41972979984796
C         1.18046622029604   -0.90859468327973    2.57347042112363
C         1.48773564129259   -2.07289881436103    1.83096161965827
C         2.78132442013057   -2.62618604688923    1.89656843448149
B         3.06460141131099   -0.47736492945207   -0.85365211656687
B         2.05212958251787    0.86167530639911   -0.25905556617396
B         2.73152555770722    0.88340095926424   -1.96862137940068
B         3.18705365559212    1.76275823441493    0.78727677490922
B         2.66825844923800    2.34145553968153   -0.93960766241132
B         4.00271863084950    2.06944453217631   -2.11170536998275
B         4.43329028576105    0.32527023366683   -1.76852656045526
H         2.83264955213359   -1.58432352180653   -1.20583305493430
H         0.87930373183994    0.84191952845407   -0.10783599061655
H         2.02016766455655    0.67188023169230   -2.88162170514966
H         5.37243650355693   -0.86898513033647   -0.00406296222684
H         5.34438961908692    1.10895846145291    1.47045128947661
H         2.98288183040261    2.56136068534751    1.63647620748517
H         1.94024398624025    3.25882915556838   -1.05926439411308
H         4.20958440769620    2.66599923200096   -3.10315331687714
H         5.02473860253051   -0.34962590219904   -2.53307933713329
H         4.73077602943797   -2.51479480507112    2.84353140012331
H         4.16936951621903   -0.50275174698760    4.20242424823783
H         1.89158630770225    0.50530688180282    4.06095800054220
H         0.16934517300773   -0.51595388211539    2.56948415372153
H         0.71613770406575   -2.56243503242968    1.24778949860543
H         3.00530081293639   -3.54430158555592    1.36494309922797
H         3.90014220775384    2.84493364689944   -1.08696146499354
H         5.09608458926528    1.49179297467479   -1.73427068552743

