69
CSD_code = DAGGEX | q = 1 | S = 0 | Stoichiometry = C32H32CuN4(1+) | MND = 4
Cu        0.00000217761637    4.29174982161458    9.66438226324101
N         0.18321531933638    2.92185752494594    8.12826651624173
C        -0.20920301874747    3.55392054778850    6.89904976853609
C         0.87349614391614    1.85503318883140    8.08980904148129
C         1.26496973410693    1.09428278994688    9.25906587074301
C         2.37352624037113    0.24758782286848    9.19355156718581
C         2.74975988958091   -0.49354241189281   10.29722593367286
C         2.01033853546915   -0.42116189915269   11.46739544048646
C         0.89421947110730    0.40037213196789   11.53343461571840
C         0.52578500838041    1.16109395292164   10.44138366155206
H        -1.30093226595772    3.49354634193096    6.84219546579936
H         0.21767675215918    3.05075593000823    6.02001726193293
H         1.20883089050007    1.44851943669981    7.12818627984318
H         2.94457497496571    0.18364056515600    8.27879795589054
H         3.61292007897529   -1.13884400392555   10.24352783179691
H         2.29652913316335   -1.01270777625252   12.32341943855135
H         0.30670540618872    0.43284118220686   12.43969422829378
H        -0.35016983684910    1.79131878937544   10.46716530135510
N        -1.36990254087598    4.10855136978532   11.20049110269114
N        -0.18321075888799    5.66163986011158    8.12826351955888
N         1.36990076545509    4.47495067114154   11.20049433813413
C         0.20920081559938    5.02957388648139    6.89904612726647
C        -0.73783000386935    4.50095153162990   12.42970850741977
C        -2.43672867718773    3.41827392127747   11.23894517049975
C        -0.87350120600912    6.72845825021342    8.08980670536936
C         0.73782491291129    4.08255283991523   12.42971065664050
C         2.43672603944452    5.16522924050597   11.23894961555539
H         1.30092959155960    5.08994884621363    6.84218415882755
H        -0.21768360334151    5.53273632624239    6.02001431683084
H        -0.79819709651519    5.59268001509472   12.48656361371136
H        -1.24099831355518    4.07407519414700   13.30874131209122
C        -3.19745747797695    3.02677926619032   10.06968216227848
H        -2.84321796169388    3.08289686693652   12.20056306398597
C        -1.26496684517957    7.48921256134992    9.25906310759209
H        -1.20884849036496    7.13496396883556    7.12818503015703
H         0.79819203295075    2.99082456828652   12.48656760598154
H         1.24099100794296    4.50943049812697   13.30874394073700
C         3.19745385343004    5.55672675870383   10.06968701096637
H         2.84321133566940    5.50061133196255   12.20056739926089
C        -4.04413296794630    1.91820586426312   10.13518716721619
C        -3.13065945779657    3.76597616494170    8.88737109387221
C        -2.37353574389090    8.33589470201161    9.19355997365531
C        -0.52576501886870    7.42241691824359   10.44137288760588
C         4.04412815963955    6.66530109499984   10.13519335681460
C         3.13065616503281    4.81753145850208    8.88737494031529
C        -4.78526714514500    1.54197587240710    9.03151338044283
H        -4.10809838951548    1.34717300137535   11.04994776742184
C        -3.89139566792386    3.39755433949840    7.79532610940019
H        -2.50043829717507    4.64193220883886    8.86159218791728
C        -2.74976551702461    9.07702418123220   10.29723659414357
H        -2.94457208793278    8.39986131804567    8.27880208814165
C        -0.89419311756461    8.18314125307564   11.53342436252012
H         0.35017360158678    6.79217374201131   10.46716052089183
C         4.78526253653093    7.04153265819900    9.03152022524952
H         4.10809377125869    7.23633230287887   11.04995499061197
C         3.89139264091838    5.18595474305107    7.79533075644189
H         2.50043517610963    3.94157523133405    8.86159497455042
C        -4.71291576164897    2.28142353238790    7.86135771920336
H        -5.43058622722277    0.67883299150449    9.08521705451118
H        -3.85890841226617    3.98505395153258    6.88905949551855
C        -2.01032644668621    9.00465960903395   11.46739709652421
H        -3.61290233494587    9.72235198512169   10.24353091547788
H        -0.30669456086496    8.15064858284876   12.43969087561741
C         4.71291170996059    6.30208629190978    7.86136368823871
H         5.43058099270222    7.90467592022975    9.08522502054507
H         3.85890514128643    4.59845666654070    6.88906319838250
H        -5.30445331582527    1.99522880539616    7.00532900893118
H        -2.29650974113365    9.59620982207177   12.32342061809160
H         5.30444830256515    6.58828307832229    7.00533502386688

