48
CSD_code = DAGHUP | q = 1 | S = 0 | Stoichiometry = C22H16N4O5Re(1+) | MND = 6
Re        2.53720153429437    0.78665260359546    4.32741357577050
N         3.58720071489662    1.55542018876392    6.12903907064727
N         0.85974502341617    1.89629095079130    5.08113482002467
N         1.59627950207580   -0.59140710933705    5.69045886054076
N        -2.02784368675121   -0.82920500055618    9.05111542715409
O         3.70814326655551    3.08774900195612    2.61717360751993
O         4.95962089739996   -1.02732848210185    3.66988251234237
O         0.86676871526081   -0.30535329158859    1.95906930056966
O        -2.13752799745974   -2.02863169697858    8.98430684779940
O        -2.51694455544344   -0.11615930021481    9.89106655781593
C         3.29199263385321    2.22034843266461    3.22850659109331
C         4.06995430986062   -0.34661775263171    3.87881824847299
C         1.50162138491225    0.09684858755445    2.81242349370592
C         3.63658897280197    2.86321257939916    6.39943207514363
H         3.12715536858776    3.52602155281590    5.71111606526541
C         4.30947658148473    3.38793573828531    7.48326222250076
H         4.31949254820638    4.45555494163674    7.63761504135353
C         4.98888766181512    2.54074642447232    8.35578777497745
C         4.92409416090746    1.17810936117509    8.07437131067724
H         5.42854286018017    0.46361774369002    8.70575897225994
C         4.22897568600516    0.73658333617547    6.96732978201429
H         4.19885781002938   -0.32158445113657    6.73893440830794
C         5.71339689428997    3.06375118767522    9.55011927478199
H         6.10687685947412    4.05853717323820    9.33697473252346
H         6.54599889499949    2.40382028585951    9.79675184887272
C         4.76271611013004    3.14566819212544   10.75008374524880
H         3.92746629743989    3.80847785260605   10.53487459434432
H         5.29504770286882    3.53211229700912   11.61401689207688
H         4.37110944958275    2.16167853931298   10.99821127076403
C         0.48245223948047    3.11799389592881    4.74029549662004
H         1.04091828915839    3.59477225528674    3.94486336791174
C        -0.58456015359483    3.78766407618939    5.34191754265205
H        -0.83711392992908    4.78266637894883    5.01379278476485
C        -1.29599670979250    3.16473415530137    6.34021778642760
H        -2.12556734970785    3.64971200431766    6.83045000858018
C        -0.92813414726310    1.86099525700083    6.71343516457254
C         0.16180833127747    1.26188957155021    6.04868991067930
C         0.55079627683497   -0.07979137724826    6.37660302423089
C        -0.15727247056781   -0.81712293190928    7.35536396588617
C        -1.24385230073778   -0.15636239744409    8.01910086062565
C        -1.60500347773435    1.11977356401833    7.71707799263051
H        -2.43114476833927    1.57734827979792    8.24283695957310
C         1.95764699986661   -1.84012379934773    5.93335006332921
H         2.77835548881087   -2.23419028200104    5.34786135868834
C         1.32766712109673   -2.63758063612990    6.88693416521459
H         1.67082701779128   -3.64650332004302    7.04695845590707
C         0.27420974830815   -2.13076726089826    7.61257667007345
H        -0.22713180663959   -2.73895731958039    8.34872549706200

