105
CSD_code = DAGJON | q = 1 | S = 0 | Stoichiometry = C50H45FeN7PS(1+) | MND = 5
Fe        3.04648249786772   11.01732177573832    3.84431384230011
S         1.39080790553713   12.48165422607918    3.68207265713367
P         4.41482573622363    9.01605805865284    6.30722929968941
N         2.13301664433312    9.36140124869502    4.71708240101093
N         2.13095695766065    7.44982169780941    5.84187004511956
N         4.76950438351123   10.04872888606022    3.73574015080283
N         6.45256137577676    8.75889052277130    4.37040562101706
N         3.63454986659784   11.64014262126598    5.65651304283257
N         4.13315688128236   11.37679697615583    7.79790344800891
N         2.35872794485057   10.37695705237084    1.93551065698794
H         3.06492376783139    9.88892220066917    1.38732685599596
H         1.60164534009433    9.71509056492759    2.11462600630547
C         5.24590314038846    9.28308313562615    4.71195569695540
C         6.76253425322547    9.22498043914574    3.12462994439987
C         5.70751469931443   10.03644544647878    2.74099574441214
C         4.00439558113195   10.76626040800483    6.59203402841513
C         3.83617554809798   12.69787248661002    7.61894126853607
C         3.54371623748956   12.84960728602930    6.27453851805975
C         2.80881358781805    8.59109751802002    5.56509211727301
C         0.95661556014102    7.49998372493739    5.14710558776587
C         0.96559174648442    8.70477260638471    4.46686555437449
C         8.01263910925414    8.91777748653348    2.43286092071650
C         8.80496347022577    9.95490014450694    1.94359343878090
H         8.48897218158709   10.97721369495604    2.08764568972451
C         9.98603780680688    9.67410740952949    1.28386607581254
H        10.59494049983250   10.48280522614175    0.91005869258281
C        10.38957283584282    8.36047273850382    1.10383239625727
H        11.31167293468998    8.14403163479241    0.58723627462498
C         9.60578267106863    7.32554631550568    1.58506932205137
H         9.91338538732359    6.30087435790820    1.44188040895965
C         8.42336691065839    7.59967904843261    2.24843733065872
H         7.80441832172629    6.78781793158287    2.60213086209578
C         5.59724110788640   10.85542881105220    1.54045529677491
C         5.01455165567793   12.11825377580768    1.63508628128880
H         4.59754609880328   12.43681284995118    2.58766911442294
C         4.97934614421685   12.95819283916331    0.53700556532404
H         4.54351783085668   13.94231946676489    0.62812235284020
C         5.50730900751811   12.53923482769830   -0.67383008641221
H         5.48553814812104   13.19572325419460   -1.52983066959796
C         6.06114227097310   11.27318850048458   -0.78312864810913
H         6.46193476115804   10.93990582476897   -1.72816903999216
C         6.11129291775637   10.43439411835796    0.31455742675214
H         6.54696218995699    9.45071803598862    0.22498908009690
C         3.86519079733118   13.71298944473388    8.66670481853379
C         4.50357560563078   14.92867038583425    8.42480651156604
H         4.98506645852127   15.09452931952741    7.47318833214846
C         4.52432711836444   15.90943169260660    9.39748636272670
H         5.02291489086693   16.84624770934164    9.20132696882443
C         3.90896001876995   15.69312869966397   10.62010746359923
H         3.92594690846702   16.46085479348833   11.37810349557504
C         3.26595195379518   14.49163948522378   10.86444370232194
H         2.77607203446711   14.32252788265508   11.81143984693198
C         3.24192842433376   13.50510328289067    9.89537583809987
H         2.71068952718090   12.58373306366492   10.08333803667075
C         3.24886936859069   14.10556408465322    5.58547427848879
C         4.02606207124526   14.48614994820625    4.49621077406607
H         4.83999281368964   13.84702171328250    4.18246711304246
C         3.78033279328850   15.68159738456093    3.84867202958516
H         4.38891128382531   15.97261939855639    3.00474830673669
C         2.75966382860837   16.50871585166091    4.28723175590381
H         2.56412377237367   17.44085649121677    3.77891544498859
C         1.99419564903071   16.14158430230241    5.38139964660180
H         1.20159647096239   16.78818193023642    5.72612229998813
C         2.23794818711766   14.94781816689895    6.03411911513706
H         1.63748426165049   14.65534314570630    6.88180312958153
C        -0.06606712141971    6.45895051090070    5.14836570003074
C         0.27215202378293    5.12062610501568    4.95673233482036
H         1.30392358625403    4.84020235730423    4.80244508691521
C        -0.71235409405776    4.15009648803753    4.92658601462028
H        -0.43992018622398    3.11683737509838    4.77308294212100
C        -2.04203445842686    4.50188417478481    5.08582055759080
H        -2.80829715511083    3.74268431971389    5.06065552301713
C        -2.38576311018316    5.83115366676311    5.27194780586061
H        -3.42099023842218    6.10993486570009    5.39505623741781
C        -1.40711804467229    6.80618195551658    5.30273987621588
H        -1.67420796693538    7.84062504194185    5.45454471535132
C        -0.15876215065028    9.21818743599908    3.67493560187217
C        -0.57471407662886    8.55537121221395    2.52339644596803
H        -0.02678312266419    7.68985255331006    2.17566062694774
C        -1.69466813014461    8.99167859139241    1.83762385166534
H        -2.01272753775292    8.47481781307291    0.94482137108011
C        -2.41026431672262   10.08285183903670    2.30263756782793
H        -3.28747657881727   10.41794862851596    1.77055691072966
C        -2.00344772185812   10.74009207587103    3.45328020222941
H        -2.56167946375197   11.58857543002993    3.81798788028838
C        -0.88224341914120   10.31136715971745    4.14204281037920
H        -0.55966452888858   10.81829549704057    5.03718862439348
C         7.26660614808389    7.92053122238918    5.20457633115407
H         7.12361492885337    8.20107869076910    6.24886544574274
H         8.31468714708391    8.04792518035956    4.93655057459928
H         6.99615948224297    6.86876260809549    5.08603895109046
C         4.54263506412652   10.74187525716739    9.01911729748539
H         3.68887361488438   10.29337193929371    9.53238351663962
H         5.00224101231166   11.48007252298723    9.67507985992443
H         5.26687672662721    9.95649311119283    8.79670511973906
C         2.55208954725051    6.42417868721010    6.75486719729072
H         3.18531831723089    5.68837305609033    6.25403923730296
H         1.67682442293588    5.91912835415505    7.16145473228272
H         3.12073161447151    6.87480606319323    7.56946660495726
C         0.79125077185116   12.24647961181007    1.97085031805451
H        -0.15813758123180   11.71339289546735    2.01946276423110
H         0.61663209267943   13.24013624426335    1.56097389872018
C         1.80851785457695   11.48444775278233    1.13976019818543
H         1.33748223959971   11.11281066773878    0.21831386102906
H         2.63314625310454   12.14502568577931    0.86390956011220

