53
CSD_code = DAGLED | q = 0 | S = 0 | Stoichiometry = C16H32N2NiP2 | MND = 4
Ni        3.60928685302734    3.60969604658103    4.76228519746303
P         5.03315834010160    4.35503311970161    3.29032875045408
N         2.53326595398026    1.68880170670962    2.78327158058294
C         2.89422817538098    2.39842430064771    3.61419647686055
C         4.41244916304827    4.91644659812902    1.63341467461483
H         4.15250439306622    3.98297846437317    1.11859760783620
C         5.42847712900230    5.69295783406275    0.80357367122374
H         5.01101024089058    5.90270331739006   -0.17996252146041
H         6.34662831782799    5.12620559579634    0.66557134644253
H         5.67549520922290    6.64465642085107    1.27016247396465
C         3.11599892813176    5.69991080877519    1.82720010284954
H         2.62215883207280    5.85984636947026    0.87084146041217
H         3.29958786408174    6.67439367826355    2.27727188436521
H         2.43465539052242    5.13651160061585    2.46933537510308
C         6.47055598316542    3.24670900482612    2.87883837023671
H         7.29086455747918    3.85762023125811    2.47978490947965
C         6.91593762749320    2.57783733659951    4.17759518899966
H         7.69525594236802    1.84175607093162    3.98678065178127
H         6.06683660331557    2.06277923040300    4.63462343962480
H         7.30736108363024    3.30737284197622    4.88431810629121
C         6.06408347776512    2.18606593713232    1.85928673356007
H         6.83979432282411    1.42490597996853    1.79040318918004
H         5.92575126934830    2.61250568537898    0.86864406733164
H         5.13708126637154    1.70064410177066    2.16381931479265
C         5.84865021577264    5.87313216722463    3.99760211210132
H         6.85936827282540    5.97962449406490    3.59278921821858
H         5.25870256164527    6.72720574273456    3.65380143727925
C         5.87317353912805    5.84864032826306    5.52694071008167
P         4.35507554499886    5.03323172866288    6.23429160613624
C         2.39869033277284    2.89395350459615    5.91062496195980
N         1.68852105530347    2.53330809186812    6.74129099428983
C         4.91642804622000    4.41241684916550    7.89117697949982
H         3.98294118900964    4.15244662192781    8.40595279273224
C         5.69290568634649    5.42841926220539    8.72107312364185
H         5.90259027723374    5.01092674163766    9.70461074319883
H         5.12615291124717    6.34657237322234    8.85906050922132
H         6.64463043773210    5.67544060492561    8.25453866745753
C         5.69989928512389    3.11597532039183    7.69735629042805
H         5.85984527399114    2.62211627226632    8.65370417559094
H         6.67437821707160    3.29957134716905    7.24727730421989
H         5.13649689522419    2.43463889298846    7.05521483123157
C         3.24671278158416    6.47060076369128    6.64575287291070
H         3.85761863470530    7.29094314565140    7.04473536598123
C         2.57778501334082    6.91587715863985    5.34698626653087
H         1.84173385938961    7.69523442628362    5.53775640346730
H         2.06268677892303    6.06674012160312    4.89006446033250
H         3.30729880433599    7.30720561382161    4.64018879744416
C         2.18611619411328    6.06414579091684    7.66535730680282
H         1.42494141351537    6.83984028203747    7.73424839420128
H         2.61259905381602    5.92584904509437    8.65598581346452
H         1.70070324245926    5.13712545220633    7.36086295177180
H         5.97968495919019    6.85936646803703    5.93172572247039
H         6.72724259886386    5.25868910708904    5.87074713534327

