39
CSD_code = DAGMUV | q = 0 | S = 0 | Stoichiometry = C10H24Br2N2Zn | MND = 4
C         7.90277763270019    9.37873189881109    1.27372224179876
H         7.78337407726769    8.98060334306979    0.26973856750495
H         8.84260831719353    9.92285908767908    1.31665838220584
H         7.09739826534565   10.08893558555841    1.46462551593221
C         7.91647622117536    8.28412576665198    2.33103257124410
H         8.65270397959215    7.51476456032837    2.06630971957986
H         8.23028189781621    8.73043471735971    3.27847611091352
C         6.92356499607000    6.06461361517918    0.58871807896202
H         7.83943741756949    6.51193282600142    0.21245927910160
H         6.36494199184064    5.68094127303835   -0.26095507580991
H         7.18282505832961    5.22133320152452    1.22466906544049
C         6.04686429121496    7.08540174897911    1.31088269199413
H         5.09221899848526    6.61694118344817    1.55601753974920
H         5.82537085557578    7.90401789659932    0.62459542435373
C         6.68079442537545    6.68227966812589    3.63039966684847
H         7.34617580932302    7.08405829051047    4.39806474903485
H         7.12120904542234    5.74354486043026    3.27469342597576
C         5.32115223568055    6.37351274268064    4.25884856151408
H         4.63972462101974    6.01862846580066    3.48251145192790
H         5.44927537378485    5.55697276405216    4.97865231588308
C         2.53129649595497    8.56714210264775    5.57624610028095
H         2.71270417382563    8.67819944868273    6.64179280943465
H         1.46216549221055    8.44783746251918    5.42138733986673
H         2.84028796729321    9.48402440564969    5.07323913934761
C         3.25273634379678    7.36208630541006    4.99009324987335
H         3.02281516201831    6.46435320836193    5.57766406434568
H         2.87602136392287    7.20043159822447    3.97647938199974
C         5.04255690329187    6.83718969104655    7.32546459876266
H         3.99012190359672    6.81232670960313    7.59435889602216
H         5.60483024095292    7.14752999180502    8.20222694874722
H         5.35980207704829    5.82966293462428    7.06644149175456
C         5.32032780951963    7.83754703844756    6.20536289126198
H         4.97644948696523    8.82280680096947    6.52368277385672
H         6.39962606440736    7.91362429134885    6.06254827904340
N         6.59228273409572    7.67321001865193    2.55028125263579
N         4.71196794806616    7.55096596202979    4.89106459459667
Br        3.36296030012406    9.26724961926786    1.86914678101831
Br        6.51018562026059   10.73703206590007    4.64313434727572
Zn        5.17198640184064    9.20154684898687    3.41306477574010

