83
CSD_code = DAGMUT | q = 0 | S = 0 | Stoichiometry = C32H39ClN2O8Pd | MND = 4
Pd        3.26738511143654    1.81906239178333    4.08816324081990
Cl        2.64797384707092    3.73759991861065    5.06229379799962
O         3.26906675374915    4.68949978724322    8.54269863773711
O         4.50185818082597    5.62610037994537    6.91393642408586
O         6.39643896777734    2.67924621241304    9.10596719166305
O         6.99055359487922    4.30975203858111    7.68400633781230
O         1.08740741837699    4.20919002030560    1.94303477308403
O         0.48875038226191    2.45891408256472    3.24126326270446
O         4.78214959063238    2.16012487451716    1.52755439291376
O         3.99486116626205    4.13564259930755    2.28325243836420
N         3.70948627643460    0.16060852367256    3.19463261242835
N         4.39633205960783    0.70675358658652    5.71953456128470
C         4.64951500291100    0.92587311848198    7.00034632997168
C         5.50776079154211    0.09081408990471    7.74005123059608
C         6.11088449295926   -0.98374146754354    7.14043266997976
C         5.83152343630383   -1.25688639860299    5.79006892796461
C         4.95283247543124   -0.37700448084226    5.12530073087270
C         4.60175036748391   -0.65442853948633    3.76863862257598
C         5.14510495200195   -1.76136656772145    3.08666120767376
C         4.73110168930023   -1.95322420352120    1.75594742040043
C         3.81762244036462   -1.09271344739972    1.19234587342046
C         3.30742271406880   -0.02781402800308    1.94676220788310
C         6.38027562226683   -2.36115714028424    5.07722466714283
C         6.05899605432292   -2.60194537196042    3.78099003567915
C         2.28531911595892    0.96163957574894    1.49335786093881
C         2.53327240301829    2.28074299657531    2.23884108747830
C         4.02858713858614    2.12213077248826    7.64005872340003
C         4.88595568354463    3.35689791003558    7.34283408976141
C         4.09880544502055    4.63117616697301    7.67771919614469
C         6.16599129528615    3.38473856387229    8.15706335266006
C         3.80759354410800    6.88371668898084    7.01837110383875
C         4.66821390678160    7.85886950228945    7.81308974153906
C         3.53202507497484    7.35991255394936    5.60005242960618
C         8.23629705322541    4.52184725525085    8.37129544728275
C         9.28901533221835    3.56753725177545    7.81775351282084
C         8.61061576384232    5.98170141528852    8.16466918521313
C         1.32617644674588    3.13760814940553    2.42933870483543
C        -0.71619244347407    3.11555465794450    3.66611121437672
C        -1.87249851782373    2.67633617941688    2.77410406190167
C        -0.92425981208694    2.74810722880293    5.12810975450286
C         3.85957533162504    2.83911899032787    1.97650770923488
C         5.34306084615549    4.61163737829724    2.38589297695970
C         5.30942319437857    6.11683735311465    2.17832095490313
C         5.88034217043702    4.22196109763756    3.76350466606008
H         5.69455696008022    0.33401262461451    8.77342014441418
H         6.78495514533248   -1.62526479938334    7.68895962041297
H         5.13500175322791   -2.77853469938420    1.18856696623637
H         3.49319805186760   -1.22161483452261    0.17196135285138
H         7.06504096591414   -3.00954712728338    5.60372402980770
H         6.48362354774218   -3.44294819921685    3.25341493450933
H         1.28590628377940    0.58752028531689    1.74478515597274
H         2.33849605398352    1.11773160455050    0.41112033865486
H         3.94867194646533    1.99435812206584    8.71906257510513
H         3.03773606860065    2.29975575275667    7.21136427414249
H         5.14009750371759    3.41074650246623    6.28126909947702
H         2.86494764574758    6.69737420968123    7.54613756250850
H         4.16726798707848    8.82018275599503    7.88227061640967
H         4.83619474941079    7.47795039689509    8.81803720769396
H         5.62847034852474    7.99220625222077    7.31978693355589
H         2.89903280411653    8.24218423811665    5.62037956983704
H         4.46733112548432    7.60302393553996    5.10157096379663
H         3.02675844456337    6.56962176806521    5.04975409501292
H         8.07409350851536    4.31017758550410    9.43615808656181
H        10.23836541618066    3.73398526207659    8.31845653060481
H         8.98117237701164    2.53762763807387    7.98293707372947
H         9.41482594022592    3.73186515022331    6.75009128434253
H         9.53987514284041    6.20233985204726    8.68171918578335
H         8.73379204464626    6.18287097142837    7.10384943203466
H         7.82695185848577    6.62722490919704    8.55176895069709
H        -0.55680407229794    4.19601626782367    3.56271867889660
H        -2.78952708823683    3.16310300333891    3.09335528737887
H        -1.67182972203239    2.95075456599446    1.74094367902499
H        -2.00413904336515    1.59793905151987    2.83527876773591
H        -1.79334251817838    3.26477634833142    5.52447587778336
H        -1.06845809714120    1.67429888305796    5.22492334712111
H        -0.04509599692039    3.03789321240692    5.69948372445801
H         5.93486515808953    4.11981163798901    1.60132466137808
H         6.30362734935813    6.53295130287200    2.31616176512898
H         4.95886868533548    6.34892902786174    1.17665837850241
H         4.62431312038044    6.56099659538291    2.89404932387236
H         6.94692279148103    4.42023484052848    3.83082912165078
H         5.35545309856798    4.79161853821025    4.52896921852469
H         5.71031030128190    3.14395490096129    3.92455881601557

