80
CSD_code = DAGNEH | q = 0 | S = 0 | Stoichiometry = C37H39HfN3 | MND = 6
Hf        1.78496737412796    2.15608032029254    3.44763809262302
N         1.49665775802396    0.15111100319088    3.38636439018291
N        -0.09545726756999    2.28868590638049    2.70462713932448
N         1.26047166658250    4.45632150779513    3.68471815371927
C         2.48350300880484   -0.56682624003328    2.69684292489246
C         2.62767100470445   -0.54007411074080    1.29156606038975
C         3.63976933605758   -1.27555477797173    0.69169060849802
C         4.52311045397038   -2.03314217147568    1.43802257813605
C         4.39629272993549   -2.05425881812812    2.81439738834445
C         3.39115100903199   -1.34193352815466    3.44897743444589
C         1.75032996348883    0.31498083093009    0.41573457337322
C         3.26385217830773   -1.41904843608487    4.94320111393825
C         0.12179791957426   -0.14188085890470    3.00229279712956
C        -0.78597074968430    1.09347398444633    3.14557821213434
C         3.44847867826429    2.69820959422470    2.06535284896831
C         4.45918252430184    3.03905681021027    3.06447744573135
C         4.94792760602200    4.34205977062570    3.24061233504768
C         5.85979401569989    4.63792662426787    4.23717744318459
C         6.32991688419090    3.64255834678523    5.07796038135815
C         5.89199485053751    2.33766770438752    4.89539836525406
C         4.97349454058349    2.03775188184663    3.91085015782310
C         2.20655621143798    2.29192477726601    5.64146847195988
C         0.85868072314492    2.35847560891103    6.19807685237249
C         0.08733616243680    1.19467459333477    6.37410042772481
C        -1.19979285301957    1.25161464993675    6.86835384053298
C        -1.77521153457549    2.46928367619529    7.20305130738491
C        -1.02609892025130    3.62626373981895    7.06615025216045
C         0.26844933379034    3.57223914599445    6.58795539229036
C        -0.84873394888596    3.48382929056172    2.94954730424062
C        -1.32462157083170    4.13081345493204    1.59823906381808
C        -0.13928732704774    4.56851465547208    0.79687234910148
C         0.48613444301970    3.67959041556343   -0.06942173423548
C         1.61702278786048    4.05733036467171   -0.77278384026866
C         2.14212095621235    5.32854435676423   -0.61596579681652
C         1.52067991383448    6.22486674266336    0.23748206698787
C         0.38829177717556    5.84800545683339    0.93610634154803
C        -0.06873472772484    4.55536461909400    3.67469693192614
C        -0.73044805710198    5.65228646634673    4.22649154175956
C         0.00427635663022    6.68260460814005    4.77743594667335
C         1.39044827399908    6.58549845728351    4.76468769993358
C         1.96480266020781    5.45087562367513    4.22646206096101
H         3.74204811328713   -1.24179971235850   -0.38463621231125
H         5.30373269803801   -2.59848863734613    0.95148562582447
H         5.07938164164694   -2.64451325246780    3.40925499451815
H         1.32138281836137    1.14566101048096    0.98784292581209
H         0.94287701627811   -0.27638581455859   -0.02113961002842
H         2.33818890021982    0.71511783345655   -0.41019050838134
H         3.48143231330189   -2.42757533590398    5.29038113820023
H         2.25589568422724   -1.14236591172590    5.24061541982690
H         3.96599126564487   -0.73924874289561    5.42751792433611
H        -0.27799904895504   -0.93482561197254    3.65893353025458
H         0.05445713875635   -0.53043296386844    1.97913505311957
H        -1.70429035718552    0.92327142376238    2.55424820660818
H        -1.09697920607415    1.19145002988581    4.20322268633039
H         3.73489895078963    1.78795759791872    1.52966595875990
H         3.27767360449481    3.51580595428656    1.35838417278532
H         4.62016144432098    5.12071361207717    2.56231095423849
H         6.21746904448257    5.65237575382509    4.35198204191863
H         7.04404696874399    3.87547609086846    5.85341527420234
H         6.27932743801431    1.55069793099510    5.52737625710252
H         4.66263935112092    1.01065970479915    3.74501807834524
H         2.72440358222412    1.38159142370995    5.95566810294740
H         2.80406556422565    3.17248956033643    5.90391143710040
H         0.52554130623916    0.23636125795454    6.12578881483855
H        -1.76530368188318    0.33868730567148    6.99653962657529
H        -2.78468005489244    2.51184800970483    7.58406186100492
H        -1.44959297163156    4.58002466962195    7.35169903181963
H         0.85478927841363    4.48172842017768    6.54255377632415
H        -1.75837738641680    3.27424064818295    3.54070426174152
H        -1.88977926050160    3.37015123875048    1.05877445294543
H        -1.98027172951607    4.97554296395852    1.81509827260265
H         0.06356034766334    2.69713099404002   -0.21156983027678
H         2.08942238762827    3.35915931297471   -1.44817141752857
H         3.02694559926816    5.62348905111191   -1.16079616520287
H         1.91736665200319    7.22307460608762    0.35624816868148
H        -0.09693166586540    6.56001129254219    1.59012774389983
H        -1.80940632920556    5.68240488299474    4.22291305751300
H        -0.48646977428488    7.54138042011588    5.21093811844282
H         2.00887728945752    7.36668407496972    5.17741133811876
H         3.03959892229647    5.32198286048835    4.21958851244425

