38
CSD_code = DAGNUX | q = 0 | S = 0 | Stoichiometry = C18H14ClN3OPt | MND = 4
Pt        6.08240570373826    5.10829351664485    6.72573073598629
Cl        6.61726658276652    4.40154928994121    8.86418361397880
O         2.67013279408187    7.92062048489948    1.26705708771349
N         7.73518460291227    4.48958300922157    5.75135403131520
N         4.72722256802707    6.94181009241072    1.11222780935268
H         5.45554700041168    6.71676143869718    0.44860016289828
N         4.27403948183313    5.92590322251111    7.08935263792095
C         8.77309159411673    3.85849320173136    6.29143479041569
H         8.71227738188958    3.66977117586873    7.35676305895481
C         9.87398419233403    3.45804000435278    5.55497772242309
H        10.69085316732543    2.94868559476224    6.03961169487711
C         9.89921817425914    3.72517279831122    4.19336945953160
H        10.74180470647437    3.42638909213968    3.58825055551563
C         8.82390769051922    4.38178117790688    3.62353125128672
H         8.81292892332485    4.60393027219228    2.56817768261716
C         7.74128193517135    4.76253634309732    4.41055266355944
C         6.55204688910464    5.45598040436952    3.92344566584073
C         6.22240965906821    5.88459763516181    2.64165504185961
H         6.89052066180890    5.72632731140304    1.80532726774954
C         5.00233672719226    6.53374925486671    2.42629628408062
C         4.09684507409355    6.76648031245590    3.46434210015836
H         3.17067665827988    7.26960450364471    3.24442658226070
C         4.42282758525283    6.33956863236392    4.74708966445807
C         5.64127993195670    5.69495587627882    4.95215499673776
C         3.66062337561541    6.45584851348272    5.98816616503288
C         2.40574465408111    7.04641728798087    6.09646556269445
H         1.94061143314040    7.45777227090902    5.21490927293943
C         1.77145372449073    7.09875042246002    7.32438265646671
H         0.79726818131742    7.55413084591446    7.41801134286501
C         2.40928067564480    6.55576021189041    8.43101620793046
H         1.95046625478305    6.57510502679797    9.40619750114704
C         3.65725775048122    5.98130282959860    8.26594728109685
H         4.18997705762473    5.54629330160020    9.10322776481111
C         3.63046112611901    7.58258747355838    0.61368218308276
C         3.74538825034975    7.83041438103079   -0.87783430159624
H         3.81989214247345    6.88398179080689   -1.40991917893278
H         4.62810073100830    8.42848830402988   -1.09551974454602
H         2.86128495692799    8.36116269470613   -1.21854527448459

