80
CSD_code = DAGNOP | q = 0 | S = 0 | Stoichiometry = C38H28Cl8O5Pd | MND = 5
Pd       -0.29617210735295    3.81575477358644    8.23300670926569
Cl        3.93193858733349    5.90541230817773   10.68460316383177
Cl        4.75579332001131    7.35518090836209    5.55804592867012
Cl        0.74093375782152   -2.40746579777055   10.52870013251561
Cl        1.87485663691540    6.39954162752935    4.84656005516900
Cl        5.81167038526440    7.08849373628059    8.47754840237461
Cl       -0.44922613461306    0.31104642598159   11.48360799129950
Cl        1.40693974752995   -2.84850406191330    7.51569222569577
Cl        0.80717054938123   -0.55830896639301    5.46433379411869
O        -0.85885112074997    2.22759313077527    9.33339965882197
O         0.40323590219024    5.33387927795901    7.11551085141587
O         1.29668055266764    5.07659776223419    9.72740458877921
C        -1.93298922833481    4.77684428350221   10.58820692751298
H        -2.70020456019935    4.04410425890818   10.34658806935168
O        -0.29453499124543    1.87610874580982    6.64109304817411
C        -1.10524477627392    5.28418297548412    9.40486382726583
H        -1.64485057557459    5.99417341167568    8.76728749365668
C         0.71905862167185   -1.36348270590996    8.04501829397668
O         1.99823433826804    2.78494412036591    8.15336939691005
C         1.59404198120178    5.72846542895546    7.42844572755758
C        -1.36793632224538    4.01227435497144    4.96923111303129
H        -0.31773735217141    4.08052817376377    5.25226337071935
H        -1.53627980961816    4.52908009721266    4.02640570573476
C         2.09784281274847    5.63551127916204    8.74750643872328
C         0.42021101256192   -1.16211848790018    9.39128481201049
C         2.45643530111539    6.28478251818890    6.45954490373147
C        -1.29601642111985    6.62874369401331   11.85988574212106
C         3.37970407162952    6.05709480566791    9.06305693962409
C         4.21593314682818    6.58493131134850    8.08226699469430
C         0.14858193239522    5.87878353327254   10.06852118761735
H         0.34307134960766    6.92127927747306    9.78998532905833
C        -4.92007576536351    4.50298391042999    5.63032689420452
H        -5.12877434917789    5.41382232373889    6.17094469307832
C         3.73950115117188    6.70410766935778    6.77806475754395
C        -2.64485515803971    8.43828187074442   12.58763806186978
H        -2.75356130231955    9.37141147209866   13.11963912724916
C        -0.07617736992061    0.86281823297231    7.55764711296511
C        -2.02960131940646    3.48564565009185    7.19863485334680
H        -2.85609656551151    3.37625254675128    7.91044914507047
C        -2.41168909487114    6.05170233377530   11.24381474833102
C        -1.68809212466314    2.19042063476662    6.44303636475043
H        -2.29643065224003    1.32928203986935    6.74409935265358
C        -0.11402679629223    0.04485375511381    9.81805924975158
C        -1.90029048433253    2.57443666581275    4.96163545968265
H        -1.45264861808664    1.87172016374970    4.26444239137530
C        -3.64023861032042    6.66792200676715   11.27958703044557
H        -4.50226885196326    6.23017438925560   10.79923327956525
C        -2.31855264790076    4.48956150395353    6.07970685590931
H        -2.26848191099775    5.53872161240641    6.36339043164216
C        -0.13506191538907    5.71444950142145   11.57854006647816
H         0.74933420113705    5.82920541041693   12.19878732426561
C        -3.37777534882542    2.82521067307907    4.83052974778203
C        -0.83895438376008    4.35243312622371   11.58181043097626
H        -0.21244511259384    3.54564017149459   11.20206861052604
H        -1.24160193924115    4.08778549336661   12.55758853314745
C         0.45516594362148   -0.34372205967030    7.13358226789111
C        -5.68275335043530    2.62990826293778    4.30890929998234
H        -6.49355874756001    2.10300858818066    3.82877010947674
C        -3.74648572546406    7.87026228646154   11.97365848828893
H        -4.70384510496618    8.36589548238966   12.03322682807710
C        -3.64057899565478    4.01093165232454    5.52503891005064
C         2.77905555091009    2.38178817170157    9.26962536304171
H         2.10761016392429    2.22491890307775   10.11533759923546
H         3.49950442449667    3.17294578514491    9.51834963901534
C        -0.37269979817983    1.10265398458124    8.92063772379799
C        -4.38982179648139    2.11980453573204    4.22428058329885
H        -4.19297658471755    1.20349981063097    3.68850335898383
C        -1.39589149690755    7.82537012609581   12.52888075143655
H        -0.53810172037326    8.27572084886278   13.00505155098178
C        -5.94293360073601    3.79979128701153    4.99946765740685
H        -6.95427885264857    4.17433431585428    5.05042921784578
C         2.81393368040095    2.58201748669901    7.00663133906221
H         3.44859631869090    3.46751865212467    6.85255585504399
H         2.15184302463451    2.45941672869448    6.14727230365203
C         3.50436326242373    1.11521613561345    8.81010715737918
H         2.88674894890665    0.23858874982309    9.00235975756993
H         4.45499419567560    0.99213316135062    9.32292106653557
C         3.67390243428455    1.33940148942855    7.29864211265853
H         4.71249922625970    1.52430035287591    7.03222869933965
H         3.32418296128887    0.47839990355268    6.73371901387793

