62
CSD_code = DAHCAT | q = 0 | S = 0 | Stoichiometry = C27H24F3MnN4O3 | MND = 6
Mn        2.97324028340757    2.97327837061897    2.97323778355153
N         2.85915427553451    0.97776250847925    3.28964533785457
N         0.94826775070957    0.94831328887399    0.94830676802455
O         4.87073692471974    2.87099419805671    3.09025458319806
F         8.44076224476084   -1.07108413731476    4.17935133801821
C         5.24454464056075    0.57869069078303    3.60996699264525
C         5.67905292509812    1.92030981259463    3.33485784471363
C         7.08264644093146    2.16921057247686    3.33952800493063
H         7.40468258967999    3.17621043360505    3.12344307043531
C         7.98869820361719    1.18566347234561    3.61802620601315
H         9.04963687144584    1.38209780053280    3.62654740900951
C         7.53124559636382   -0.10505248689451    3.90374613317316
C         6.19995004194168   -0.41287791315457    3.90527654523021
H         5.88117012667854   -1.42017035479139    4.12889089769658
C         3.87191568787058    0.22190655374001    3.59712182049267
H         3.66816990579479   -0.81778363624973    3.87323021234484
C         1.56822228383017    0.32112692219924    3.31712472572544
H         0.82859750399397    1.00098925188713    3.74452839331435
H         1.60557978282787   -0.58357440175776    3.93985518806139
C         1.10957133660160   -0.10768450716563    1.90046144033226
H         1.83953717616048   -0.81402684785421    1.49767580563013
H         0.15476192799978   -0.63975091198445    2.02301408534469
N         3.28966051411120    2.85916166652751    0.97772298338208
O         3.09026105542266    4.87077578434624    2.87092556167062
F         4.17937698159363    8.44073386145106   -1.07120608581815
C         3.60999288888167    5.24454480875195    0.57862122346217
C         3.33489243879824    5.67907625848998    1.92023319861000
C         3.33955736189801    7.08267168284865    2.16911176587662
H         3.12346852554921    7.40472211541453    3.17610563815158
C         3.61805523749083    7.98870788608251    1.18554954485608
H         3.62657457046546    9.04964785789766    1.38196824481619
C         3.90377050199044    7.53123379722889   -0.10515964798434
C         3.90529438370023    6.19993472673294   -0.41296496625640
H         4.12890132666343    5.88114048641806   -1.42025378756413
C         3.59714180624466    3.87191213178205    0.22185544561461
H         3.87322507583995    3.66815681317149   -0.81783944612565
C         3.31709277919738    1.56822670981340    0.32109059304207
H         3.74448978094681    0.82859277714135    1.00094586436730
H         3.93980940872112    1.60556904101428   -0.58362060366940
C         1.90041340440382    1.10960512650293   -0.10770087302714
H         1.49763239896108    1.83958064739397   -0.81403433874847
H         2.02294224047522    0.15479556621569   -0.63977445941716
N         0.97771851277415    3.28964709169188    2.85917028747566
O         2.87096295431086    3.09027656347220    4.87073568346062
F        -1.07113507339548    4.17913944518236    8.44080828994760
C         0.57865165933782    3.60992984969658    5.24456641374890
C         1.92027677767173    3.33483718319362    5.67906472059650
C         2.16917750735499    3.33944576181850    7.08265703493508
H         3.17618060718282    3.12336209732967    7.40468391505470
C         1.18562417390980    3.61788283711980    7.98872090949587
H         1.38205858139905    3.62635918007335    9.04965954179677
C        -0.10509647863703    3.90359887935894    7.53127999211534
C        -0.41292152530787    3.90518226389796    6.19998410189268
H        -1.42021938023628    4.12878463871515    5.88121388272698
C         0.22186172590599    3.59710033383719    3.87193871177267
H        -0.81783204340588    3.87320104571412    3.66820114610078
C         0.32107878086574    3.31713646582591    1.56824117893112
H         1.00093906511333    3.74453793897420    0.82861185664920
H        -0.58362244433143    3.93986890989093    1.60560125204544
C        -0.10773049885643    1.90046886765739    1.10960732717501
H        -0.81406508146564    1.49769055311816    1.83958449874579
H        -0.63980502207367    2.02301166918036    0.15480281435474

