56
CSD_code = DAHCAQ | q = 0 | S = 0 | Stoichiometry = C23H28N4Ni | MND = 4
Ni        1.45262746363919    1.01942099767956    3.98038232807450
N         0.87214975627487    1.02125524447799    2.11606211449912
N        -0.39652527842560    1.47703818414574    4.27576484740006
N         3.14551887577967    0.12111112505615    3.98963882009428
N         2.11550385615156    1.68602638219703    5.60462019373817
C        -0.17919581580316    1.83756020348115    1.98418825152907
C        -0.43599903727024    2.54733460491506    0.79355422241184
C        -1.52216272372705    3.30044461894670    0.39857867268865
C        -2.75818428365353    3.44761090512496    1.00450108154401
C        -3.14211989715319    2.91012686580653    2.22334953840728
C        -2.38405078040098    2.26364767328697    3.17438678563383
C        -1.01461725099135    1.91451415936459    3.18896706490999
C         3.93679089373850    0.37247687321003    5.03013232921797
C         5.26168612872967   -0.10346795693810    5.11980134828873
C         6.18468501624843   -0.04517714417794    6.14195405446774
C         6.07823182887136    0.50696506362406    7.40804507606296
C         4.98379608478930    1.18174733139427    7.92280610389629
C         3.78002630037766    1.49204474696679    7.32764887261465
C         3.27777198541277    1.21240126386601    6.04022723839207
C        -1.17391687608382    1.31017101961599    5.49292648788099
C        -0.35823799461639    0.74987854620408    6.65667787312800
C         0.42288773987059    1.83451440902120    7.39309931988216
C         1.33166484608350    2.59528990476252    6.41813869552733
C         1.46908173318844    0.51513122340218    0.89442791324330
C         2.72089736842504    1.25846822271453    0.40401229906491
C         3.81833616088938    1.38411366912660    1.45528460879929
C         4.45004324712493    0.05493899210114    1.87208685926332
C         3.61839734895600   -0.72121559105508    2.91048401230777
H         0.37910059055001    2.55937167728518    0.08482909727523
H        -1.40451651553945    3.80846032936084   -0.55235571160409
H        -3.50265287475274    4.01852589013498    0.46574450670794
H        -4.18222251130926    3.05914010358762    2.49185047378939
H        -2.94055823649380    1.98254109991338    4.05657043360868
H         5.63565194840846   -0.60469241302211    4.24029060933005
H         7.13827088861251   -0.51163071854624    5.91974933409363
H         6.93663763331563    0.40310748194211    8.05814407835711
H         5.08914673013528    1.52655550548416    8.94557015267729
H         3.11014492605844    2.03762380742799    7.97517380523200
H        -1.62316077404100    2.26596246266830    5.79875714577586
H        -1.98912863712797    0.60153682427086    5.28488424439661
H        -1.03127714666118    0.25310832704640    7.35838745039158
H         0.33590882991664   -0.00175135479494    6.26121940537877
H        -0.26632646770464    2.54022537450746    7.86273011393385
H         1.01786102085681    1.36728333647602    8.18023698500214
H         1.98088579287178    3.29461180757686    6.95902723128932
H         0.71121992086108    3.19524731073237    5.74667561714688
H         1.72519348941784   -0.53506469452625    1.05173137245677
H         0.71671308410614    0.52539537662024    0.09307994815603
H         3.10601043958206    0.73009423460112   -0.47247995476624
H         2.44599708704153    2.26762501966393    0.08806497642215
H         4.60138601141634    2.03199443542301    1.05379459860904
H         3.40135947146609    1.87976645040067    2.34203272473894
H         4.60244797207056   -0.57844303874144    0.99500305166807
H         5.43143347874679    0.27180197232122    2.29934455590499
H         4.21088274791687   -1.55761285316743    3.30346605602946
H         2.74420440385512   -1.16875529296979    2.43683068502928

