45
CSD_code = DAHCIY | q = 0 | S = 0 | Stoichiometry = C14H24N2O4Pt | MND = 5
Pt        6.14948733492290    1.22281214831151    2.22030995017862
O         4.39425392909328    1.08157189083260    1.26787440692789
O         2.37832993957122    1.93119115450644    1.32576414814702
O         5.07212716948655    3.91475762299389    2.45163158855216
O         5.77207473471670    2.92364581274024    4.31517578357459
N         6.61464540881390    2.62035704998319    0.71999994709961
N         7.95550193309608    1.73470153696468    3.22384349538441
C         5.65471795058651   -0.67892267222794    3.08331146003223
C         5.31456105050396    0.28528420159839    4.01759187056671
C         3.94092257866552    0.86736715901252    4.18367917860858
C         3.70727027940881    2.14559531034101    3.33472255704852
C         3.43750731894370    1.71797823955958    1.87374520573843
C         4.96683746978496    3.07889209699497    3.36858633234096
C         2.53527103012480    2.96560648733803    3.89520704968252
C         1.31173158041060    2.14221968907849    4.13172036555857
C         0.76980765226118    1.94301923904020    5.31884722005230
C         7.94991160371206    2.86668976104200    0.17155874698666
C         9.08908037556289    2.25795788117987    1.02215078466671
C         8.88941707716915    2.61981735550905    2.51088342975949
C         9.13241328709484    0.74061162608709    0.82540165035076
C        10.41011028342375    2.87194242606234    0.54979038480556
H         5.93403287674049    2.43183688082988   -0.01967076070551
H         6.23166717319135    3.43930167531321    1.24061583225762
H         7.47170369146218    2.28545971903886    3.95733035534038
H         8.45870525702352    0.96516668495684    3.66217683421921
H         4.88502485904305   -1.11849666101884    2.45398247028616
H         6.54727316295654   -1.28422727164575    3.22561841262184
H         5.99290058620306    0.46634813337626    4.84999386914943
H         3.17700201502539    0.13518017641615    3.90930346077594
H         3.80194598792694    1.14449184142769    5.22932100466988
H         2.30854659940968    3.74440473312183    3.16214230016397
H         2.85761196246613    3.44265060112835    4.82512668611238
H         0.88267174951591    1.70159744291644    3.24305540723235
H         1.18343816524001    2.38198717581005    6.21367399369490
H        -0.11723312078862    1.34619392230260    5.45121939868059
H         8.12139552037761    3.94529652963726    0.08525102606480
H         8.01516480840363    2.43424467772309   -0.83038008995643
H         9.86556780341937    2.59819268395520    3.00813357949052
H         8.50636102312955    3.64136938627017    2.57274427698710
H         9.86148052101452    0.28657336101387    1.49178870371343
H         9.41697890570300    0.50906546361409   -0.19746430486101
H         8.14919265379768    0.29481853498069    1.01378334675128
H        10.44487934734394    3.93512893137900    0.77478405872270
H        10.52463255384288    2.74491114999344   -0.52340780082087
H        11.25137591019896    2.38910821051640    1.04018238335403

