35
CSD_code = DAHHEZ | q = 1 | S = 0 | Stoichiometry = C10H20RhS4(1+) | MND = 4
Rh       -3.31781390474215    5.20944617800613    9.73867418509823
S        -4.57826971562135    3.55546552108103   10.67245401347360
S        -3.17290309030812    6.17227654074780   11.80011971396787
S        -2.05760355452402    6.89313869105601    8.91457701760617
S        -3.51931911762492    4.17280995509132    7.74198670380346
C        -6.06981909120587    4.56586617904486   11.05561543059758
C        -5.82137806206030    5.46665869639996   12.26051228845171
C        -4.93668284239681    6.67439823608151   11.97151941197458
C        -2.37943470251664    7.79286255370805   11.47959967176512
C        -2.56100954082119    8.25334872545614   10.05065751851841
C        -2.82308769224040    7.51530713910971    7.36923355034121
C        -2.85237979974947    6.44854574715353    6.28159084542927
C        -3.95748247958285    5.41615686922488    6.46789292650692
C        -5.17210851159385    3.38696777235993    7.95477807738103
C        -5.17398865017297    2.58476317908464    9.23668756489985
H        -6.86786726637232    3.85921009459275   11.28208323251818
H        -6.34438046046364    5.15578426060184   10.17848904634717
H        -5.37721899055297    4.87801050824845   13.06609088482215
H        -6.78920073799744    5.83441020441689   12.61034440784963
H        -4.97609465902896    7.36894277227344   12.81028185223500
H        -5.25973064781560    7.18477774146038   11.06172305421386
H        -1.32400464592726    7.62736629726131   11.69864674606647
H        -2.78398470517647    8.51314844966514   12.19045442665421
H        -1.92822032823334    9.11595303680042    9.83669364858933
H        -3.60069147614893    8.50982903310444    9.84272133275114
H        -2.20704842971412    8.35562005754588    7.04908849923135
H        -3.82958812245988    7.87253710871528    7.59182564605165
H        -1.88362417824199    5.94604146206319    6.23268741225858
H        -3.01517799661568    6.94819953142485    5.32369705292866
H        -4.10416495344757    4.85681835947097    5.54390338151368
H        -4.89580718261527    5.89632318726230    6.74926595793728
H        -5.34646803198190    2.74193370009201    7.09237335722670
H        -5.92824128850091    4.17301074490402    7.97428459255959
H        -4.47865943095511    1.74750080859703    9.16695953579591
H        -6.16774571259135    2.20597065789435    9.47468701263492

