41
CSD_code = DAHHIG | q = 0 | S = 0 | Stoichiometry = C16H16Cl2O6Zn | MND = 6
Zn        2.42122321569570    4.19096643960965   -0.00077551533231
Cl        2.11646479807563    4.20020663995023    7.15733323011133
O         1.18978267177871    3.86710901149274    1.40990110971217
O         3.19769874511455    5.67511077694290    1.12017964354941
O         3.95187606098347    2.89023514789220    0.89282884401662
C         1.44019730693971    3.95195081488850    2.65740655664748
C         2.43373839799142    4.82597643380992    3.20744127815212
C         2.63079345972981    4.88839543168852    4.60251935501870
H         3.38560205915816    5.55408519674975    4.99426638484076
C         1.87683593593188    4.11979747923825    5.44300718020074
C         0.89783973536583    3.25248751499865    4.93170456530268
H         0.31655895133731    2.65334141626667    5.61637960550386
C         0.68925092397099    3.17176071627436    3.58598750932540
H        -0.05876154151273    2.50761722334946    3.18053851641704
C         3.24506761241463    5.61626528417551    2.35314762686781
H         3.99052874132257    6.25304277037649    2.86438821198435
C         3.72919836560693    1.50083196967063    1.07463858964709
H         2.90536174236980    1.40427370244687    1.77836037046331
H         4.62257914837693    1.02650932129597    1.49114408678294
H         3.45091712286778    1.01233295217407    0.13860570403454
H         4.66986596392690    3.01086875506755    0.25833429846455
Cl        2.71650546497516    4.18763756219214   -7.15878196286162
O         3.65217379421438    4.51364171445863   -1.41232360910814
O         1.64334325371857    2.70723506634978   -1.12160149031691
O         0.89077526553024    5.49259892254002   -0.89415523006620
C         3.40028104925006    4.42993805548399   -2.65963487206338
C         2.40436525163378    3.55825375783277   -3.20908080252222
C         2.20486926790671    3.49778320822362   -4.60389274186256
H         1.44799770050663    2.83412194940950   -4.99511075409288
C         2.95916378988892    4.26560962934980   -5.44477842019510
C         3.94112857091236    5.12994475788459   -4.93413410661514
H         4.52294388303755    5.72819175251844   -5.61914546447381
C         4.15183797028910    5.20902722205140   -3.58864542266472
H         4.90204057801420    5.87103105948601   -3.18375238302936
C         1.59340999044442    2.76805779046453   -2.35438382482423
H         0.84602329880131    2.13307622043383   -2.86504365604344
C         1.11181214317105    6.88331003496562   -1.06791600406578
H         1.94072443222395    6.98486619183254   -1.76492519812805
H         0.22050661426153    7.35761862286331   -1.48888823590154
H         1.38197732666995    7.36812457000951   -0.12758678271588
H         0.17010093710534    5.36756691329085   -0.26355619016064

