53
CSD_code = DAHHAX | q = 1 | S = 0 | Stoichiometry = C22H18BCdF4N6O(1+) | MND = 5
Cd        0.99373721038795    6.82700997998830    3.89836680932407
N         0.34063712844801    5.96139274510775    2.00518287245099
C        -0.29931975860524    4.80645411773107    1.87288013020113
H        -0.19168189267092    4.10266831891356    2.69014994156934
C        -1.08493101974879    4.50493657773475    0.77291086487158
H        -1.60213293561529    3.56124844939203    0.71675560886908
C        -1.20807659104131    5.45112226148252   -0.23286049042365
H        -1.82346327372298    5.25845534215846   -1.09785570874869
C        -0.53667403475571    6.65408881790681   -0.10517867878935
H        -0.61436658750453    7.41217253030960   -0.86676463988150
C         0.22626942972079    6.88272413323353    1.03733899314090
N         2.11942697686581    9.56162988089801    2.33817264759205
N         1.66151056666998    8.31546914297229    2.36917633867919
C         0.92132626955580    8.14311693007504    1.26835789688539
C         0.93025629114836    9.32650870578376    0.51049586377220
H         0.44000220096889    9.51998213654306   -0.42008048381225
C         1.70069359765445   10.20588535205082    1.23608508397866
H         1.96829324026108   11.22343766809309    1.03427908337019
C         2.89966204947843   10.09356265508240    3.43289349136376
H         3.36551511140245   11.02832841891671    3.12022839474877
H         3.67757806894239    9.36125171195303    3.68546735221654
N         2.32662210610456    5.06634938958958    4.39573281393732
C         2.92612672430757    4.26239162022344    3.52568088834876
H         2.89630402024595    4.57514867354973    2.48854668608409
C         3.55928812072069    3.08794036553940    3.89748742200888
H         4.03158077351484    2.46504937320151    3.15555731330926
C         3.56623337951961    2.73505904768292    5.24010739121251
H         4.04516388864117    1.82529754492708    5.56755367013531
C         2.94714552000066    3.56958320457475    6.15267580545898
H         2.93409253140883    3.32762990183534    7.20257257002216
C         2.33106121424674    4.73527975489037    5.69604057369695
N         0.54023476562428    7.41356756261257    7.10770097878346
N         1.08672038349433    6.76019707265291    6.09788147732350
C         1.65440378010441    5.65827943540892    6.59473694275488
C         1.45961839066064    5.62392331090034    7.98567759078605
H         1.78471415465717    4.88215386787966    8.68443483244253
C         0.74202166900310    6.76581944991606    8.26647503985297
H         0.37258041460927    7.13651549088444    9.20130156700797
C        -0.18288949889882    8.64578726557398    6.89751942053943
H        -0.50442172602789    9.04201688603229    7.86150616561207
H        -1.07496683351193    8.43110361442295    6.29255033324903
C         2.02409489539289   10.33144729416654    4.62367170954034
C         1.67816163055174   11.44427630186721    5.32780066654549
H         2.00520180262212   12.44866259402170    5.15616316114292
C         0.79708726235399   11.00692868630134    6.35000978565326
H         0.32835658176985   11.62031104303177    7.09081735157663
C         0.66014488269775    9.66099425424727    6.18814401628049
O         1.40900669067491    9.24379347229558    5.14352107874507
B        -1.91458123315997    7.19565514010429    3.98725067659838
F        -0.89984430447008    8.21790756778595    3.82358513803152
F        -1.17612961330614    6.09210759399453    4.55381937169749
F        -2.35829411047948    6.83956447974673    2.76118937380512
F        -2.83570031090799    7.62721286382815    4.86448681642939

