51
CSD_code = DAHJED | q = 1 | S = 0 | Stoichiometry = C20H22N5NiO3(1+) | MND = 6
Ni        8.28684395730290    1.35486295044729    4.79864379779720
O         9.75772075830945    1.61490268711766    6.23628430300500
O        10.62229865410099    1.09552575601257    4.36279934109105
O        11.88140023626796    1.41989175933396    6.06872260669262
N         8.37519735184908    3.12831961840783    4.19771405824968
N         6.09341527571662    1.17457315781450    4.76631820956573
N         8.33382175022747   -0.46367716222092    5.03261076730630
N         7.89443542117240    0.91245101284756    2.72302654006764
N        10.80689547254679    1.37547962522535    5.55434752782125
C         7.92015553348496    4.14085046123527    6.36190171904561
C         8.28730696840784    4.24925773819709    4.92271030697596
C         8.51940206357367    5.49564588965829    4.34610914362765
C         8.83760169226107    5.58654990679401    3.00575409255091
C         8.90197561514558    4.41948755523174    2.26167641555060
C         8.67054209850116    3.20547082533085    2.88655415656352
C         8.78470881604645    1.91080513137700    2.12424359230140
C         5.98759492594116    1.25662150908366    7.17534593146333
C         5.32423822793876    1.07903855618547    5.85184774919499
C         3.96293067328369    0.81153891440511    5.74561116136406
C         3.40566414190498    0.62636650250255    4.49381996060181
C         4.22301198669288    0.70702041472387    3.37661191279418
C         5.56876681044236    0.98460858533627    3.55728705827453
C         6.49696291397052    1.13160847223334    2.37101288114819
C         8.43727167115730   -1.07373711543339    6.21219526339360
C         8.52973188687499   -2.44725944059639    6.33675802172423
C         8.51049769860226   -3.22196900567896    5.18699401299406
C         8.41295698809383   -2.58457071668292    3.96327340968433
C         8.33366143102610   -1.19793566428808    3.91128883767291
C         8.32419871116633   -0.47958196742537    2.58535868552047
H         8.50267308487763    3.35230184646695    6.83827478516410
H         8.10485925647685    5.07794704150120    6.87792672717057
H         6.86190616668887    3.89757790321507    6.44890165365754
H         8.45450752219862    6.37959045505695    4.95932701206684
H         9.02942262940645    6.54312155913471    2.54624069418645
H         9.14181636398073    4.44261287365481    1.21097753973283
H         9.81959155599205    1.56920767577793    2.23776333094837
H         8.57920534215047    2.06435647666635    1.05660082155828
H         5.86601965407696    0.35945532809296    7.77997565812806
H         7.05342195724855    1.45618530583556    7.02491497188423
H         5.53846684129307    2.08209004307416    7.72465643123797
H         3.36021260440547    0.74649207009002    6.63702491234271
H         2.35330549189792    0.41516474214993    4.38614102820585
H         3.82525999340144    0.56083183618974    2.38524647759077
H         6.17178249575213    0.45429970847583    1.57027478065823
H         6.38093378354510    2.15678372195796    2.00254800959833
H         8.47587274570407   -0.43759709722658    7.08667885451598
H         8.62328571950202   -2.89358639816935    7.31287138818580
H         8.58220553658447   -4.29669481026683    5.24243305973655
H         8.41384852567195   -3.14946236302724    3.04443499922616
H         9.35397526219877   -0.50246028839147    2.21193468675960
H         7.69871773493495   -1.02746358743444    1.86903071340421

