98
CSD_code = DAHNAD | q = 0 | S = 0 | Stoichiometry = C51H40ClN3P2Pd | MND = 4
Pd       -1.10102149047516    2.41201296408524    5.51579106850224
Cl       -1.44306171561083    4.62857144754491    6.15370744879873
P         0.21765859285157    2.81642477980155    3.71200748728900
P        -2.45779235774143    1.80902741701380    7.20317754275686
N        -0.04845136674029   -0.00702435173701    6.06816402875353
N        -0.25634973921709   -1.99061819717559    4.84260896041604
N        -1.33672244891677   -0.04341418096602    4.10613622809955
C        -0.82067044610604    0.56731248121253    5.15764814027444
C         0.14994838614587   -1.31271980805084    5.91149323055763
C        -0.96014472920834   -1.31039723435241    3.94496784297374
C        -1.33369171769454   -1.97790112359077    2.69832478529576
C        -2.04657866453173   -1.27940483205110    1.72589121988881
H        -2.32752321163162   -0.25614755152343    1.92399293931394
C        -2.37584293464521   -1.89625707967942    0.53482189832031
H        -2.92759052586427   -1.35354518534894   -0.21911693615010
C        -1.99787726767379   -3.21013476758936    0.30415835601681
H        -2.25577302433757   -3.69038867151321   -0.62869173651811
C        -1.28829180160422   -3.90828573069100    1.26898831044177
H        -0.99420474716334   -4.93164935205886    1.08591573661062
C        -0.95571409545290   -3.29709263397485    2.46252282854331
H        -0.40015291608268   -3.82050694572528    3.22467842133157
C         0.85470382302655   -2.03420871768274    6.97021142710674
C         1.01963018108610   -3.41457807248807    6.89595954862234
H         0.63217191173803   -3.93688459289479    6.03536855243392
C         1.66416320033950   -4.08912777483163    7.91492899070755
H         1.79063785614595   -5.16064791721141    7.85792708894278
C         2.14888527545206   -3.39379169894564    9.01187775756428
H         2.65178247280480   -3.92413060625763    9.80770604307432
C         1.98923985943681   -2.01871106227532    9.08852756926157
H         2.36822287230055   -1.47879176328071    9.94430856900288
C         1.34508957170043   -1.33910074837576    8.07347412791739
H         1.20711541654387   -0.26969480564988    8.11543922274090
C         1.18562244903287    1.35965309984786    3.20793340576071
C         0.96224744701929    0.63208108821305    2.04710335902541
H         0.24084128113347    0.97844356412667    1.32097578700521
C         1.64485575268032   -0.55406448686569    1.83663339034325
H         1.45507594881036   -1.12753420539180    0.94080607027756
C         2.54700156264045   -1.01783438764793    2.77867296850851
H         3.06140092090509   -1.95366986597593    2.61852663986501
C         2.77986299681005   -0.29064257317620    3.93644951504412
H         3.47390422006794   -0.65861047296416    4.67825164495877
C         2.09833187966081    0.89058961774441    4.15182745944544
H         2.24267665915326    1.45661873055533    5.06775543382702
C         1.37977422208799    4.19363128330669    3.46240662735455
C         2.61121212848185    4.02611616553774    2.83651615333777
H         2.92497073900612    3.04385996394063    2.50946952891984
C         3.43378064196473    5.12015939406601    2.63616367889596
H         4.38952143698403    4.98905815357555    2.14902307203177
C         3.03570492484385    6.37862867253854    3.05730914294041
H         3.68346255696817    7.22860665500029    2.89894504253638
C         1.81184777068756    6.54536011651624    3.68541117270316
H         1.50365075951560    7.52443320216026    4.02089097557042
C         0.98255646350076    5.45807329929375    3.88932995110664
H         0.03452057687217    5.57445710339650    4.39801245922509
C        -0.97602936914238    3.06649437714301    2.36048737264190
C        -2.31684627583301    2.78232155489637    2.61468106149148
H        -2.61661938435410    2.41976279147650    3.60923574962186
C        -3.25906610220886    2.94961720888319    1.61519887691887
H        -4.29865941288890    2.72904764081657    1.81025392419811
C        -2.87047552579740    3.40416745296053    0.36500995816105
H        -3.60707039327946    3.53691447415494   -0.41388657514442
C        -1.53940540977190    3.69709938505841    0.11286260966950
H        -1.24057068726814    4.05824631112690   -0.86054917863508
C        -0.59153057139831    3.53200544528090    1.10644673471836
H         0.44710695172937    3.76779685781696    0.91679113218463
C        -2.60150398637503    0.02995838758549    7.55721344659148
C        -3.26630130492724   -0.73824252995607    6.60343459689267
H        -3.75074334784499   -0.24024609294119    5.77031748756652
C        -3.27877253812740   -2.11479833255626    6.70449769456505
H        -3.78011227539537   -2.70706489500738    5.95268871927356
C        -2.62721486742991   -2.73503794557577    7.76025285323873
H        -2.61986039613169   -3.81257764146828    7.83015449024209
C        -1.97695412092313   -1.97558912603306    8.71718469659189
H        -1.46536277181266   -2.46047265121695    9.53591293585718
C        -1.95800525219871   -0.59500243719026    8.61705397193144
H        -1.43305293180800   -0.00302962437452    9.35395527506664
C        -1.62822585604083    2.47743610697010    8.67350752880346
C        -0.23979303772613    2.58640001073537    8.56948955225639
H         0.25870019158412    2.28732944118057    7.63492875494001
C         0.49157645847271    3.08654494612457    9.62971790175428
H         1.56546932700653    3.17765269853461    9.55292336311711
C        -0.15668520503417    3.48976646852640   10.78789212027006
H         0.41450555681318    3.89092243639247   11.61235493530274
C        -1.53474145022664    3.39641636108205   10.88449816876957
H        -2.03706344278273    3.72671109410135   11.78220179883833
C        -2.27588243383095    2.89014018664138    9.82989538966813
H        -3.35319879388733    2.83425468315423    9.89755183426068
C        -4.18658419330609    2.35016309028727    7.22354484939938
C        -5.10034485888554    1.82632515633022    8.13424275964200
H        -4.78016225593033    1.07882700552125    8.84847203507390
C        -6.41470930502550    2.25354093241878    8.10697598834052
H        -7.12515500780132    1.85329341507859    8.81592339497110
C        -6.82281410176339    3.19023587679524    7.16946536251812
H        -7.85141621348891    3.51985950438680    7.15371377400306
C        -5.91881899722246    3.69704665573811    6.25032257457417
H        -6.24137811632833    4.42031083929668    5.51602285910294
C        -4.60110414099787    3.27636722869926    6.27248538076146
H        -3.87744170742823    3.67387744880615    5.56634166235379

