45
CSD_code = DAHVAJ | q = 0 | S = 0 | Stoichiometry = C16H22N4NiO2 | MND = 4
Ni        3.55540712805086   14.19099259022919    0.00000178027178
N         3.42114886101410   12.49545997464626    0.65683462424163
N         3.74691298882724   14.79605702924212    1.77657217328254
O         3.95230436025326    9.68197250015979   -3.13046413294487
C         3.60076636654840    8.69626883577059   -1.01528431625614
C         3.68672593074039    9.88927931342481   -1.95663884671705
C         3.47180829809270   11.22085376368083   -1.39675560977152
C         3.50025427621052   11.37462936022528   -0.00123263002460
C         3.30893308443277   12.43338996749903    2.10524072663525
C         3.96472294384750   13.68128670429655    2.69710020626145
C         3.83771042469768   16.02074116851006    2.23809014583176
C         4.22600143801091   16.23268434123673    3.67344468478116
H         4.45727513694632    8.67237933009275   -0.34481905280370
H         3.62192420516929    7.79434181193871   -1.62277993163053
H         2.68319835390365    8.71320226037573   -0.43256099510219
H         3.57466284895920   10.46995988514713    0.59779977154630
H         2.24312550239252   12.42388026821339    2.37094133352312
H         3.77073949658810   11.52105930189437    2.50536640978285
H         5.04390701546419   13.51210723572141    2.81576188618846
H         3.53171071721578   13.88458961746147    3.68140032799306
H         5.06274040831367   15.58752399661673    3.93721909944915
H         3.38642970166013   16.00680454764057    4.33033957199753
H         4.50276645277411   17.26434181527913    3.85276796847143
N         3.68961878420697   15.88652101265807   -0.65684383348138
N         3.36399112767989   13.58593697706332   -1.77657734999573
C         3.27330634421968   12.36125325928238   -2.23809854953054
C         3.63924778158276   17.16114394549376    1.39674298554618
C         3.61069419111455   17.00735698322683    0.00123141044614
C         3.80167138947393   15.94863240502658   -2.10526449915029
C         3.14598232341267   14.70067113065330   -2.69709662072749
C         2.88486800680711   12.14925042933709   -3.67339787316264
C         3.42427436841590   18.49275543275643    1.95655072315473
H         3.53635212065286   17.91203704698420   -0.59778912746025
H         4.86745139917605   15.95830149083855   -2.37107288364179
H         3.33969033464905   16.86090328734005   -2.50532295557571
H         2.06677369771515   14.86972583899465   -2.81572100718953
H         3.57898106762063   14.49740196901075   -3.68141129137463
H         2.04807703763015   12.79437312840453   -3.93710938165177
H         3.72436882144134   12.37512985864767   -4.33038247184348
H         2.60812818520238   11.11756656141415   -3.85263674172153
O         3.15906083702182   18.70019705319201    3.13044099861728
C         3.51090145043397   19.68580897203077    1.01528679754406
H         2.65441810425912   19.70994805627100    0.34482428000043
H         3.49004634194505   20.58777285538282    1.62278916757810
H         4.42842034522534   19.66850668668884    0.43251302861227

