44
CSD_code = DAHYAO | q = 0 | S = 0 | Stoichiometry = C17H18N4S4Zn | MND = 6
Zn        7.27291710772421   10.62952523355455    6.07354240570720
S         9.44572351834144    8.92119835767851    5.50652554050947
S         9.00744115972400   12.56912832135247    4.69643327568666
N         8.72244191973042   10.94544964592728    7.62548771165004
N         6.99353275130235   10.30971773803529    3.97686699517726
C         8.57847653632141   12.06912615661841    8.31923677794069
H         7.86288882972753   12.77352244610227    7.92166427708645
C         9.28987589031112   12.33393352106381    9.47467014078009
H         9.13690464867410   13.25936996914024   10.00531483390425
C        10.19281427905392   11.38433521269468    9.92792168551439
H        10.76653717826442   11.54824175312974   10.82765537828809
C        10.34767253222931   10.21846330050797    9.20082276641650
H        11.03852457785150    9.45308811434029    9.51933134874673
C         9.58648044660967   10.02786497649846    8.05077776984873
C         9.72821686292345    8.74991875881640    7.28581341336218
H         8.96757463918622    8.03780413870772    7.61939538616943
H        10.71319953864416    8.30665463874139    7.43796174704559
C        10.89734113993211    9.95468754723987    5.06393653160540
H        10.98379129748589   10.73807333293338    5.81687727014513
H        11.77321435831490    9.30822243959988    5.10978530766500
C        10.71496090092997   10.55891494442633    3.67160374461543
H        11.60795980570151   10.37777433861116    3.06908390638947
H         9.87839021698904   10.06787791873343    3.16919254274292
C        10.48026328857615   12.06104736273655    3.72627820539533
H        10.36830752162500   12.47781210555317    2.72622416592295
H        11.31849832461012   12.55398700560377    4.21877842602509
C         7.73142281152621   12.55240335709746    3.40579788520685
H         6.90102557407403   13.10888751012691    3.84785953631177
H         8.10965984818657   13.10644373720411    2.54658071383414
C         7.26671880973896   11.18869194696318    3.01521973441622
C         7.10087834254167   10.87121738384389    1.66970934085055
H         7.33741545735992   11.60201369949472    0.91146250863058
C         6.61953358762414    9.62152946048584    1.32357100316428
H         6.48039564470868    9.35693018806702    0.28612441511144
C         6.31972108785304    8.72259804910357    2.33529409631083
H         5.93646983408081    7.73964584346841    2.11564259743418
C         6.52650646654932    9.11188073921875    3.64611620767721
H         6.31785956821974    8.44785421211757    4.47205668494429
C         6.52308844585918    8.18592394587614    7.57199015639206
C         5.60812125493006   13.09469060588081    5.87533640399120
S         6.59502347971821    6.95250046516783    8.55118209046686
S         4.82999369618845   14.35898263918976    5.34822484229224
N         6.51264984236530    9.08614514313518    6.81071935003186
N         6.23356697768154   12.16962179522285    6.25433087861118

