64
CSD_code = DAJCEZ | q = 0 | S = 0 | Stoichiometry = C18H40ClNOP2Ru | MND = 6
Ru        3.30691168057482    3.06045028644042   11.36200950668394
H         4.31977068221351    3.64600316191041   10.36687024224722
Cl        1.82574458151914    2.04963654909752   12.92077505097196
P         3.44243169367311    5.05812896288601   12.47847060668348
P         3.67781968055588    0.98787840854281   10.47059153912023
O         0.90839022339197    3.73281756883973    9.72011122079751
N         5.07978133362845    2.54281108294704   12.65781874012066
C         4.99510452027855    4.89514776854001   13.49600021100498
H         5.56295585351900    5.82904017592487   13.48407932569649
H         4.73979585556357    4.66907074154837   14.53147994073998
C         5.84499504692120    3.78016725823544   12.89085307076860
H         6.22618962773249    4.12314527843423   11.92339807273328
H         6.70622769188264    3.56546562018534   13.54629708808423
C         5.93945311742518    1.59399290717434   11.92896425431987
H         6.76387133628401    1.26343352389824   12.58352592563019
H         6.37115479636900    2.12278385662032   11.07437319679070
C         5.16776316582473    0.38393681226115   11.40897610294785
H         4.81704813221501   -0.23883901287280   12.23677069350181
H         5.81792914031365   -0.22648862289082   10.77775830377557
C         3.91783536882558    6.54664008963828   11.44557240572878
H         4.94310982034102    6.28976077999432   11.13863470877069
C         3.08009816674974    6.65148436496105   10.17542454051433
H         2.06755425581530    6.98301186507508   10.39115076562544
H         3.03013528434197    5.67901833365924    9.68531024116674
H         3.53028964297651    7.36686736180029    9.48869294915255
C         3.94450008069300    7.87758362445425   12.19019497999176
H         4.45537622144273    8.62275144671790   11.58177156744213
H         4.46962634730506    7.80266065360606   13.14131300293666
H         2.93505511559979    8.23713372597709   12.37593425979136
C         2.18549474681101    5.70730448062870   13.69672958351970
H         2.48490220197391    6.71776798126302   13.99879756663793
C         2.05514817722249    4.82905972513453   14.93825935409274
H         1.19760017801341    5.15905121467750   15.52295977562137
H         2.93197446073696    4.88989415438433   15.58125958480366
H         1.88317094225474    3.79308554318438   14.64982719918953
C         0.84917558692484    5.74918041867816   12.95890813407428
H         0.58035331505433    4.74133072609192   12.64109780271649
H         0.89949738524483    6.38366252731731   12.07604814458391
H         0.06179773355008    6.12569255714214   13.61026058265705
C         4.18190891752209    0.80630833989828    8.68359061319504
H         4.20754954886039   -0.26258180926699    8.44205275729050
C         3.13743042286623    1.51690597982064    7.82777247521456
H         3.10846818269469    2.57196380776045    8.10307866276084
H         2.14456498767810    1.10179571448960    7.97908001676689
H         3.38824480352074    1.43623974942148    6.77094513213474
C         5.55281553588029    1.41773303769725    8.41543656717969
H         5.75213314280287    1.41506959776544    7.34486346627633
H         6.35296847826861    0.86662997284852    8.90521487275231
H         5.56432116135814    2.45100393094917    8.75978652292091
C         2.50828619878442   -0.43086038116869   10.79168380357109
H         2.44020921061546   -0.42761860205035   11.88965814121851
C         1.11057297779661   -0.13819290207966   10.25367488610847
H         1.06090050111359   -0.28079420338774    9.17604049246979
H         0.82351927973154    0.88684964257326   10.48881273671970
H         0.38649065348257   -0.80664914245807   10.71667153234225
C         3.00424622162696   -1.79605523374658   10.32581291447453
H         2.37345538778347   -2.57264360989597   10.75598594462279
H         4.03071823189047   -1.98415156497159   10.63461948579693
H         2.94339422278318   -1.88467038821088    9.24310904931314
C         1.85146600842621    3.48379151087845   10.33500535104683
C         4.73046298231971    1.95888368655450   13.95481333910419
H         5.63626141222530    1.76287391491888   14.54591199057146
H         4.18177834485338    1.02956837062458   13.81899697044144
H         4.07479999335334    2.62757667892518   14.50761203407082

