89
CSD_code = DAJDOI | q = -1 | S = 0 | Stoichiometry = C28H40B18CoP2(1-) | MND = 10
Co        9.48746277640030    3.68764029615835    2.77648190461178
P        11.66812491001070    1.45238359270763    3.53372908794023
P        10.62869726389515    4.50758100594122   -0.17343197053655
C        11.15809317285717    3.17408082646457    4.09557496846540
C        11.50855310620285    4.27375991118539    3.06065685335315
H        12.06853849588689    3.94414713720559    2.18337354053323
B         9.70345537343070    3.59074574400604    4.81958708346401
H         8.99158233278639    2.77747846259649    5.28321551002968
B        11.28231559503591    3.78980075596944    5.67987971785992
H        11.57165950535697    3.05387943280539    6.55889254405433
B        12.46982393548867    4.26373741781371    4.49370021984026
H        13.57949358697913    3.87571626403197    4.43160062643211
B        10.42002117446318    5.52265366766949    2.99223564747122
H        10.31141562135536    6.15382435795332    1.99855379443116
B         9.20441259789203    5.17134673734963    4.18287363591111
H         8.11333420687348    5.61190452745909    4.22027750394416
B        10.05508517107425    5.05980936269277    5.74591440427510
H         9.48810777093161    5.30168931978674    6.75616509289533
B        11.76942499730667    5.48960139235519    5.52289107804346
H        12.41826291248382    6.03076859433262    6.35133577771342
B        11.98859916581873    5.76598506205655    3.77943548018669
H        12.81183295347508    6.41633018170309    3.23351806153303
B        10.52412957111075    6.31792057459292    4.57216581125831
H        10.28402220870541    7.46583707826298    4.72651458648185
C         9.21779935120557    3.51950767240390    0.58051038767303
C         9.49528289299605    2.16092667435696    1.23312320033615
H        10.51503503049506    1.78813214602472    1.16968266047641
B         8.03254512130184    4.31790840863172    1.46381973956948
H         7.97109037151133    5.49440063717180    1.40601882905907
B         7.63883481778744    3.54884417464104   -0.10580430023556
H         7.42665705339419    4.23317727084520   -1.04333244084761
B         8.63136185203044    2.12934682939052   -0.27298338022615
H         9.16885021283898    1.81827152971790   -1.27679056033044
B         8.56928986074398    1.84681185866654    2.56158085484535
H         8.99756079186706    1.09459797241544    3.37715412384906
B         7.49650662089506    3.21194541541633    2.76009221723436
H         6.91761832221070    3.50869993095778    3.74200881906342
B         6.56134330782601    3.32740345985603    1.26065514564428
H         5.48095294543313    3.80905857809901    1.26051691362517
B         6.95119335680139    1.94668924006144    0.19578814746568
H         6.16843530612912    1.45322410843929   -0.54166617025649
B         8.22841205624389    1.02689641904584    1.01179953498522
H         8.50851380387424   -0.11710416531062    0.89979883712540
B         6.91222135678336    1.72049890223652    1.95265172421168
H         6.08969543889558    1.04856256943671    2.47395539616427
C        13.50955253250312    1.47590040125189    3.78235099096777
C        14.29452174531639    1.63171596251612    2.64637363123463
H        13.81579766068699    1.75575710770926    1.68514233645656
C        15.67528531656811    1.63350618757734    2.72673035100083
H        16.26662319072246    1.76415716418264    1.83078818820150
C        16.29336244984025    1.46404525556183    3.95283303928848
H        17.37258602398525    1.46134291832509    4.02295045324094
C        15.52143343998046    1.29950946571847    5.09306161240068
H        16.00146814877734    1.17183816904258    6.05393147454511
C        14.14289522189578    1.30548522059866    5.01095903834908
H        13.55115524081534    1.19364828471527    5.90775157110788
C        11.37692289670812    0.25285989599958    4.90504125246587
C        10.50124964714760    0.37747983762966    5.97548123763158
H         9.95788867880567    1.29346666394409    6.12415198951072
C        10.32098251558325   -0.66916420993268    6.86473544273897
H         9.64356368872787   -0.54579092096284    7.69841290367285
C        10.99575456338857   -1.86469597862816    6.69598446013524
H        10.85357562455574   -2.67816054356020    7.39424446640173
C        11.85013878444070   -2.01421015920358    5.61460268125460
H        12.37410581472561   -2.94849835223296    5.46167810800628
C        12.02779931040913   -0.97118225647260    4.72954331524825
H        12.69334332589596   -1.09808370345494    3.88394672366883
C        12.07187540919973    3.35313037884033   -0.44064006164858
C        12.09597558673517    2.00831610690760   -0.80036718044051
H        11.18067078239810    1.45226506227490   -0.92502829672078
C        13.29845946414837    1.35773720490527   -1.02614477246429
H        13.29327515676570    0.31226737628856   -1.30367681704758
C        14.50028672414353    2.03433182285056   -0.90652851623609
H        15.43367470224831    1.52066440035766   -1.09074380253453
C        14.49497195232561    3.37068146245423   -0.54208012854184
H        15.42629662015349    3.90944081908405   -0.43617845016508
C        13.29361314144961    4.01290694579348   -0.30803679468370
H        13.29137815194425    5.05498964359822   -0.01521225636457
C        10.09747436155093    4.63000609461651   -1.93897113159432
C         9.21928116034236    5.67985109462322   -2.20871824707316
H         8.88645969817240    6.30331663707650   -1.39046025203556
C         8.77493908561062    5.92698548037832   -3.49205023471332
H         8.08534155781359    6.73837819724822   -3.67959833783727
C         9.21711139727788    5.13638232989840   -4.54110667093487
H         8.87271422840688    5.32449475570076   -5.54869422470084
C        10.11082658758363    4.11015498653829   -4.29156135188817
H        10.46876291381594    3.49576209369513   -5.10721856093198
C        10.55137699628510    3.86063331278948   -3.00319209836126
H        11.25658022306166    3.05925604814721   -2.83800772023902

