47
CSD_code = DAJDAT | q = 0 | S = 0 | Stoichiometry = C21H18Cl2MnO4P | MND = 6
Mn        6.90943551643421    3.69107203322174    0.81327513521908
Cl       10.60162196186882    5.66431017752859    4.12099046203676
Cl        8.48199766244500    6.70306007165839    5.79008557783019
P         6.71109624835946    2.24252004407910    2.55766987924529
O         7.30571576248284    5.65876691053478   -1.32108999480623
O         4.97795283903652    5.47661100855409    2.09467579850537
O         5.23915224454153    2.01415798333160   -0.92114833665567
O         9.49727884601820    2.47262568875223    0.18283162800924
C         7.14880905347840    4.88654950267223   -0.48835517331169
C         5.68197575315011    4.74251946213810    1.56547652626602
C         5.88111699946750    2.66501225511313   -0.22787156636162
C         8.46766407969026    2.91813587849887    0.40262833341729
C         8.22102808898138    5.00718087558407    2.08023551501081
C         7.95406732642651    5.17177611078762    3.58076748622876
C         8.91871834404301    6.23210131126647    4.12465035099003
C         8.10666514083568    3.86868162377218    4.37074077575763
C         6.88860878507210    2.96093545816329    4.23560095579930
C         5.12788129819260    1.36748357047850    2.79152748514908
C         5.09069980740817    0.19510838631059    3.54304034386555
C         3.88742678569160   -0.44859732144456    3.76140071514106
C         2.71417906441543    0.07097071894354    3.23743498672958
C         2.74534949196035    1.23953760925704    2.49549251449772
C         3.94778503736305    1.88706370952102    2.27259653920155
C         7.85894216581061    0.83127764773424    2.50862184315326
C         7.73773362973360    0.00773722232971    1.38879838559898
C         8.56121485078275   -1.08905370114133    1.23429992627300
C         9.52276916299569   -1.36972779223560    2.19336058386978
C         9.64824058546895   -0.55584175800390    3.30539661074404
C         8.82014238471337    0.54268788556283    3.46945500819861
H         6.00630032707013   -0.21651635130692    3.94551520043513
H         3.86461065587624   -1.36014283850051    4.34016869034786
H         1.77659147387122   -0.43717073132388    3.40588455103097
H         1.83305134465455    1.64656747683986    2.08573052089503
H         3.97098676494071    2.79823907763706    1.68703757667994
H         6.98563643781809    0.23945668052941    0.64229949837170
H         8.45954728957614   -1.72231612253198    0.36564541503999
H        10.17480524324141   -2.22150069513586    2.07126054122717
H        10.39740947527167   -0.77304976469493    4.05255761746828
H         8.93314713107801    1.16231041428689    4.34624325886267
H         8.18981967864642    6.01175257324247    1.63760108442201
H         9.26088431347267    4.67256658058603    1.98252014568375
H         6.95049979613092    5.57976647952231    3.75281574530860
H         8.89154895548544    7.14653146337474    3.52846272309548
H         8.24202945607707    4.10936905635102    5.42850451944018
H         9.00550347859678    3.35570312196271    4.02011977638808
H         6.92519873726195    2.13090688667794    4.95082676018333
H         5.96966052406146    3.52866411951520    4.42821807951797

