56
CSD_code = DAJGUT | q = 0 | S = 0 | Stoichiometry = C25H24N4NiO2 | MND = 4
C        10.46392331723306    5.69228166333489    6.38409760022503
C        11.37498738000886    5.15977005586693    5.48352304840439
H        11.47678886165272    5.61626002154747    4.51168885296445
C        12.11887818512408    4.05324918455224    5.86961304316698
H        12.83716439187406    3.61907621253242    5.19004238511739
C        11.92776947611497    3.50009823133669    7.12828713492144
H        12.47032593164257    2.63224781515231    7.46841385176213
C        10.99902479867301    4.08686630829019    7.97562994359364
C        10.62483053172478    3.62327680157559    9.36410470018201
C         9.15822663350487    4.19112292149497   11.15239251584170
C         9.47115421135890    5.08323263511966   12.18617132118784
C         8.92220756984047    4.87715642027675   13.44156181862119
H         9.16307991570289    5.55975543809903   14.24447921612316
C         8.08257887405394    3.80235973478032   13.67652406289790
H         7.66574980039511    3.64778717491900   14.66117966985895
C         7.77789092188448    2.92548957579713   12.65084034090676
H         7.12271718317588    2.08635104423383   12.83716318770925
C         8.30181745679880    3.10730911963637   11.38016228399012
C        10.40010703042663    6.22960262915249   11.92239289273001
H        11.43360933861648    5.88503564569542   11.95762165040642
H        10.27165382881079    7.01770530335130   12.66039090019252
H        10.22504737856624    6.64012123291138   10.91889265165116
C         7.96737359084717    2.17693316598858   10.25747745785630
H         7.14322749723325    1.52055431363441   10.52544254877717
H         8.83789787430819    1.56727919437973   10.01575747905863
H         7.69993088992076    2.74442714416874    9.36357217581615
C         9.54350273190695    6.86717571107913    6.14885913065636
C         7.85175848728048    8.12096113379791    7.25899258630057
C         6.66021163304435    8.01181817616269    6.53270607408692
C         5.73897706396972    9.04557815193039    6.60180890444230
H         4.82006123486123    8.97338909470670    6.03739391272593
C         5.98252405391243   10.16212355662725    7.38142945255858
H         5.25499773098502   10.95953904136847    7.42514272507769
C         7.15847157310320   10.25836720629078    8.10474824612874
H         7.34970082077053   11.13307983428152    8.71051932380939
C         8.10466294174385    9.24762170915762    8.05174170017115
C         6.40530527960942    6.79087108568682    5.70651357340657
H         5.37055485511738    6.75092829798935    5.37547412810696
H         6.63472693469512    5.89113270348695    6.28152489897221
H         7.05411280434570    6.79970056673317    4.83081336964136
C         9.39246730152806    9.34441616828086    8.81238203963215
H         9.67339047341033    8.36127548143379    9.21299419939691
H         9.31434806433581   10.05679265562311    9.63008030952590
H        10.19319515760760    9.66569550580731    8.14625172353530
C         6.87928164647808    6.77754690975872   10.37862628515832
C         5.81482982868802    7.24060123314265   11.20369324126576
H         6.09426183885433    8.19423759994848   11.65079543758092
H         5.62281489199114    6.51201844894586   11.99132419203899
H         4.91760387115731    7.37733137469301   10.60062913020056
N        10.31115742217681    5.16023181750976    7.59422048946873
N         9.67269422987780    4.43167169042988    9.86197458076315
N         8.79137970398184    7.06955119860506    7.24481748266423
N         7.74533104072302    6.41475418128480    9.71702888045076
Ni        9.07376567909821    5.83885291957990    8.69471649619138
O        11.14063327987617    2.66059241115116    9.91065920263186
O         9.52561455537846    7.50729514668509    5.10901554944666

