59
CSD_code = DAJHOO | q = 0 | S = 0 | Stoichiometry = C28H20CoN5O5 | MND = 6
Co        2.61874371681534    4.56127754705567    5.35057983206590
N         4.36786457995491    4.07924822452999    5.80639103289999
C         3.47155980768173    5.82383260854314    4.18382541007514
O         6.59770766888608    4.56759453540525    5.42617668550333
N         2.14260605039920    3.11285113178383    6.69092730312821
C         2.91855935117569    6.75041039578846    3.31542162568229
H         1.84665521102748    6.83463544631043    3.19088712380797
O         3.59607053232364   -0.65970280303275    9.88368059192392
O         5.64848295292368   -0.12885922039295   10.21212373767023
N         4.57065897666878    0.04727791008565    9.66922153108363
C         3.73751210887315    7.60266932097895    2.58433387899177
H         3.28694745024116    8.32112585199695    1.91362869168993
O         2.68968483406759    5.94371733306730    6.67755362545839
N         2.48141811222987    3.34279592259942    3.93819708049469
C         5.11561623963596    7.54592703905995    2.70921052140069
H         5.73906914322808    8.21834958918885    2.13860959356789
N         0.87688969694958    5.02424513435299    4.89448011250994
C         5.68392307212842    6.62783660751981    3.57064848279566
H         6.75356044588631    6.55328371570562    3.70056776131568
C         3.14815382785755    7.28491694565581    8.54483486172419
H         2.75063404598114    8.04930480023616    7.88374682888962
H         4.21269399440768    7.45438156066282    8.68955690336661
H         2.65814525959580    7.31560764740842    9.51404394276182
O         3.09255185679167    4.89230252925093    8.60978815831231
C         4.86305128181979    5.77436655498025    4.29844151300638
C         5.41166827122601    4.76938683216517    5.23589945279675
C         4.50049595279574    3.13418833098341    6.76153403568378
C         5.68934239932324    2.66494185190737    7.32178886090701
H         6.62804084138616    3.08668681515628    7.00395288830849
C         5.65503709255688    1.67343787636219    8.27986210029740
H         6.57860161169191    1.30679413729103    8.70408782789653
C         4.46872464499189    1.10223201339511    8.72539086726817
C         3.22168106696394    1.57898806676976    8.23033059233871
C         1.94729385291175    1.18560664469214    8.68381869061414
H         1.85850670027277    0.44705151624227    9.46404024054076
C         0.82845411484753    1.75432100422730    8.13048359179799
H        -0.15770423853797    1.47921351801698    8.47019378653060
C         0.96823561490227    2.71048458694339    7.12497819417175
H         0.09063046138895    3.15965597904726    6.67656107119096
C         3.26061565314037    2.58543284501199    7.23234374747707
C         3.42018138243112    2.51102419353198    3.48272504188827
H         4.39413403526920    2.57389077451827    3.94523790113307
C         3.19407314682053    1.60332238178313    2.46735270741715
H         3.99126482358372    0.95492825111465    2.14249159543092
C         1.93627863710050    1.54379209123902    1.87957883332750
H         1.72792948468951    0.84440358614534    1.08539078666345
C         0.95963326256122    2.40680944419124    2.33476612084237
H        -0.02600334373884    2.39333663593496    1.89913066083507
C         1.25786410712025    3.29847686704068    3.36293962340216
C         0.32873704478124    4.26684865613670    3.91819356443368
C        -0.99201668492293    4.44159190319886    3.50859742751795
H        -1.40643154329924    3.82172642797858    2.73040971929803
C        -1.76282058263267    5.41801348627583    4.10892715710705
H        -2.78753947575687    5.57136690655255    3.80860647095058
C        -1.18534508132747    6.20098781672473    5.10232991287199
H        -1.74751869299647    6.98010911201164    5.59103993381238
C         0.12879454745446    5.97201584625998    5.45979710305590
H         0.62020970156663    6.56342397186149    6.21911249578831
C         2.97559097388444    5.89491330054825    7.92833016627610

