39
CSD_code = DAJKOR | q = 0 | S = 0 | Stoichiometry = C13H15IN6S3Zn | MND = 5
Zn        6.14748819112634   10.16659120945743    1.17934853602851
I         4.51648949922558   10.87770660403997    2.97233401568964
S         8.17225728418619   10.93629393863126   -1.52697180296932
S         9.17893247625321    8.81078487594473    0.20741327884282
S         6.95669141741175    8.28596292993142   -1.62408668773311
N         6.80858531891754   12.03145794451592    0.56478189297737
N         7.81471964962418   13.49684580135473   -0.73616517539886
N         7.46153096385477    9.04876813779829    2.31362224285058
N         9.32611190699760    7.96865320739681    2.77043883311100
N         4.88617367487643    9.03963911686673   -0.01077927916468
N         4.35555190493085    7.57387431274610   -1.56759079234393
C         7.67000702541060    9.52379347369521   -0.50871241515699
C         7.55659564801287   12.19333696601695   -0.50910525691630
C         6.56810902545918   13.28553347792319    1.05139668034027
H         5.97573135515944   13.43541356221867    1.93079843496207
C         7.17965337653252   14.20004555768653    0.25650472756761
H         7.22221403228917   15.26777585958725    0.30920998160249
C         8.57591213772475   14.03292068991781   -1.82717726422989
H         9.38357665550160   13.34397835143382   -2.07687601479535
H         8.99283805775096   14.99629143604207   -1.53819757789826
H         7.94638688712942   14.16417489402572   -2.71082178511207
C         8.61004487337105    8.61740742179325    1.83012758603239
C         7.43513533693520    8.66655922802813    3.62529287691772
H         6.59907010121420    8.89803255714558    4.25321769655439
C         8.58083232893155    8.00213854835315    3.92220743307581
H         8.92483317814195    7.55579300524235    4.83164072494644
C        10.62766805780899    7.39212994143474    2.59513981739473
H        10.70480714147593    6.97096424982169    1.59202266363808
H        10.77746344549560    6.60707843817220    3.33431132180891
H        11.40574416804159    8.15048747009589    2.71293149187243
C         5.33628240776921    8.31811246502815   -1.01850293174598
C         3.55488710040021    8.74917726211495    0.09672381558668
H         2.94616024144778    9.20735264470846    0.84921158287240
C         3.21349616647236    7.84692934986062   -0.85823010741525
H         2.27806977978215    7.38213634974040   -1.08982571990217
C         4.50303942696490    6.68498473270809   -2.68366272107138
H         5.33476339807306    6.00057134328737   -2.50715250839585
H         4.71213891796974    7.24978796576450   -3.59517290890848
H         3.58450744133122    6.11661467946917   -2.81264468551375

