50
CSD_code = DAJLAE | q = 0 | S = 0 | Stoichiometry = C19H19BrN6OS3Zn | MND = 5
Zn        3.48975288158500    1.95650659101988    1.84820137403337
S         5.67772458046504   -0.13232266979700    0.20524493934253
S         5.35505407582313    2.50685082222276   -1.00317043245488
S         6.89083135532868    2.21467107954363    1.47309869644366
O         1.96058667360804    2.23308627329351    2.87808512028575
N         3.55927185276220   -0.07378267361118    1.92125845606517
N         4.24295360533501   -2.09875139274178    1.39244294658536
N         2.98357886334427    3.06754793254297    0.22079300066555
N         3.20771035811762    3.96772536050881   -1.77567263252352
N         4.78270088155683    2.85197941028918    3.07493928263924
N         6.72582513659833    3.56783463325627    3.81853714315671
C         5.43334137343590    1.62157875415653    0.57090783251277
C         4.42884064946586   -0.77514455913585    1.21930896041831
C         2.77597944894234   -0.98073556787425    2.57429717379081
H         1.98258254887821   -0.65397295912426    3.21391676607710
C         3.18341209483874   -2.23625447368186    2.25396512650240
H         2.82362077841348   -3.19716751468802    2.55754700465327
C         4.99290108409225   -3.14687373259874    0.76191546004801
H         6.04172414334323   -2.85436177031022    0.69964707827088
H         4.62427659999342   -3.32936489558758   -0.25047607539695
H         4.90020447312096   -4.05967883510942    1.34760169610025
C         3.77797481366597    3.20275812087311   -0.82387124970887
C         1.85467938771770    3.78034583485039   -0.06300549301331
H         1.04665308269741    3.82178796955875    0.63761262788202
C         1.97890328860176    4.34347698702964   -1.29256556453919
H         1.31487459020687    4.96184647826354   -1.85972732223464
C         3.79159217950234    4.33730347671377   -3.03323463454076
H         4.45750079058313    3.54213801043057   -3.36782010662770
H         4.37139512577735    5.25808675795254   -2.93404375010541
H         3.00349585829149    4.48859236396138   -3.76915229711973
C         6.07998248172821    2.90012003723755    2.84214084592902
C         4.57852499811969    3.50891213023241    4.25207412313819
H         3.58861205826932    3.59813087794436    4.64759558065801
C         5.77055904314541    3.95546571609144    4.72619585528081
H         6.02430823261808    4.50676812743023    5.60764654456707
C         8.13975334310786    3.79831190536081    3.90028750477025
H         8.55229724899864    3.85414956862613    2.89274210608710
H         8.63423895970486    2.98326684493659    4.43477630305749
H         8.32564062951734    4.73463086119685    4.42477852074264
C         0.74098717213199    1.83821970323359    2.64942176498670
C         0.36597599600911    1.13431148718999    1.48906267872928
H         1.13031839085373    0.91153879903081    0.75421577748781
C        -0.93348797381753    0.72960233383998    1.27477274069103
H        -1.19749502774032    0.18854006351682    0.37734984999828
C        -1.89934808400592    1.02041204149757    2.22138663457434
C        -1.57768859663813    1.71168036888504    3.37675922816700
H        -2.34235006646687    1.93248661907337    4.10734944141909
C        -0.27759944785414    2.11421519358730    3.58601004304290
H        -0.01464719424178    2.65418355535840    4.48324855510143
Br       -3.70432473953308    0.45674795352667    1.92780477436599

