53
CSD_code = DAJLIM | q = 0 | S = 0 | Stoichiometry = C20H22N6OS3Zn | MND = 5
Zn        4.03049612704406    2.89856580666734    1.90904506382953
S         0.86688612500935    2.31826286172271    0.60481842405972
S         2.99353849815751    2.53152093205497   -1.39603242935147
S         2.00905091925421    4.93338187955246   -0.05796379528443
N         2.55284780415819    1.79220805350349    2.67708416252335
N         0.60500810087553    0.78030209855824    2.82487521700521
N         5.00708582155629    1.99904175049215    0.36420844961994
N         5.40999415831790    1.33838256834477   -1.69615054642499
N         3.70934640214525    4.90027435962157    2.07522780025194
N         2.90717114619941    6.89028407210398    1.58397261252098
O         5.24954813687153    2.63339487167832    3.26413974481219
C         2.40081364467963    3.18570736921425    0.17998394189596
C         1.38250108724078    1.60902644270344    2.09915803414344
C         2.53497430579254    1.05805002031410    3.82543573471421
H         3.39170241727789    1.05345507896596    4.46606776548664
C         1.33626573062159    0.42860045852361    3.93366419609604
H         0.94208432784015   -0.22912374673331    4.68035695465082
C        -0.73401193724470    0.37248929931293    2.50976364012850
H        -0.86489278066265    0.37820315528827    1.42787803933365
H        -1.46174370405322    1.05714178369747    2.95229630406296
H        -0.90879136973075   -0.63153825798599    2.89404006039523
C         4.53361637599508    1.93756016235661   -0.86495969758379
C         6.23838549037620    1.41170936689029    0.33123712212967
H         6.83397807407286    1.34810022153815    1.21835943790204
C         6.50103789622026    0.99698298407851   -0.93477648280709
H         7.35054621943303    0.50306733984459   -1.35846900117300
C         5.22815774035072    1.08398961662798   -3.09659878049277
H         4.48341665261381    1.77435896937825   -3.49059085429557
H         4.88083997512253    0.06109628611938   -3.26108942257602
H         6.17261468351882    1.22795495196589   -3.62065309148654
C         2.92555178117271    5.58096641171606    1.26222635214743
C         4.22397835285706    5.80447198734981    2.95778075900639
H         4.90432257961292    5.48989367108937    3.72179507795972
C         3.74067176138466    7.03950225527472    2.66477219783588
H         3.90745308855997    7.99334802890312    3.12036999162597
C         2.18154942426106    7.92020659338501    0.89802111428085
H         1.21861738394422    7.52731242378794    0.57087676490263
H         2.73251866902330    8.26048482960455    0.01795619862258
H         2.02497506247935    8.76168685591183    1.57045928091973
C         6.47511637579535    3.09301481209074    3.36263137253342
C         7.05423584500540    3.94834758098871    2.41235895385493
H         6.45785116880889    4.24066321536101    1.55412675598638
C         8.34681953474992    4.40843656040960    2.55190084687290
H         8.76088680272682    5.06659487297480    1.79800781219766
C         9.12983340121804    4.04217437557939    3.63954231720743
C         8.56785883855309    3.19543402544088    4.58672300159428
H         9.15649600069068    2.89361794688674    5.44372829761546
C         7.27666379554678    2.72906494705660    4.45897889764416
H         6.85562858773572    2.06894970703547    5.20375218533348
C        10.52973442558438    4.56488934917374    3.79171981002352
H        11.03880847096010    4.59587213011151    2.82945815589654
H        11.10456733058744    3.93851360475539    4.47060301054376
H        10.51769324969064    5.57900305871379    4.19568224130749

