52
CSD_code = DAJLOS | q = 0 | S = 0 | Stoichiometry = C19H19N7O3S3Zn | MND = 5
Zn        3.02026291749626    8.51685600524616    1.55367050575629
S         1.36494837580928   11.48007215775630    1.30775507818809
S         3.94825627860464   11.37091724364010   -0.07511410565484
S         3.86999549253386   11.57036478320341    2.83377484594756
O         2.98222726037706    6.62820710425801    1.68244970007303
O         6.82394854368862    1.80166401521194    2.08066865879730
O         8.25678961495353    3.40460824511961    1.96668256399494
N         7.10576418431499    2.98856494836960    1.99076328734194
N         1.04804627099936    8.78191202008325    1.52245064593702
N        -0.83987896442424    9.91109215644079    1.46115144512872
N         3.89639737647544    8.65221627938582   -0.26659381956604
N         4.78883673872188    9.66312266869254   -2.00662921882821
N         3.85610988779125    8.89534651391752    3.36111144408261
N         4.66340862762589   10.13480772918653    4.99180529849368
C         3.05663288446106   10.82565241433936    1.40033729943174
C         0.50519898079599    9.98170548357438    1.43619293258290
C         0.01281383147624    7.89756414896693    1.60247508633285
H         0.21036619250314    6.84924547790373    1.68183365161222
C        -1.16110465739069    8.58015337972920    1.56323900629486
H        -2.17772392714390    8.24813057941425    1.60137205925083
C        -1.74591760610027   11.02013118516347    1.36936399531186
H        -1.34821241813729   11.86209155346073    1.93684348329063
H        -2.71365791770195   10.73020407127056    1.77405012602293
H        -1.86879710367902   11.33241675169758    0.32960976258508
C         4.21725019211487    9.81798171220368   -0.79678395114262
C         4.27875484025754    7.70343006608578   -1.17081673314532
H         4.12528385321300    6.66370133869422   -0.96889685203603
C         4.83559442970464    8.31304757522322   -2.24903251949486
H         5.25105750974474    7.91570482590912   -3.15140015407947
C         5.28746406970470   10.70850306613767   -2.85384712982587
H         4.72062568277931   11.62070935342246   -2.66939944258035
H         5.17918215053196   10.41438226419266   -3.89669305205529
H         6.34173100499700   10.90439497120341   -2.64491697231587
C         4.13533728038046   10.12487789293007    3.75265581107889
C         4.22117616822792    8.07540406053116    4.38999581965371
H         4.09477979630596    7.01537720052243    4.31448112130877
C         4.72536655380786    8.82687087711426    5.40269450059031
H         5.11322645441122    8.55428937531721    6.36186097183593
C         5.10763505817785   11.29041106597227    5.71741941888072
H         4.50175999263322   12.14974444514315    5.43044399214696
H         6.15338076747360   11.51031720422071    5.49012753884013
H         5.00464939245990   11.10978433433110    6.78615355573614
C         3.96053127427346    5.79345348713692    1.75270934568421
C         3.70421437445416    4.40030215538976    1.85294329312000
H         2.67447144253156    4.07687686606674    1.86680242883334
C         4.72352574675661    3.49179826406373    1.93013231320918
H         4.52619894614001    2.43293507095372    2.00658432358852
C         6.05385864751721    3.92453023438177    1.91094503379725
C         6.33863731649715    5.29008270930647    1.81251953104397
H         7.37224075551986    5.60281463221113    1.79929942072143
C         5.31880141074981    6.19818277879834    1.73582174953496
H         5.52785402457951    7.25814525650733    1.66023290465947

