54
CSD_code = DAJLUY | q = 0 | S = 0 | Stoichiometry = C20H22N6O2S3Zn | MND = 5
Zn       13.44272158152855    7.40687083820675    2.73380996653105
S        12.47796530773335   10.59483699072171    1.76519274465361
S        10.47688866717433    9.11948114122597    3.31445729164595
S        10.95872462371631    8.42465893908185    0.51736185135724
N        14.60081093205281    8.98621928586273    2.32718908772892
N        15.15419176915381   11.04785089998803    1.79500502126039
N        12.40201577874268    7.57501450663310    4.47477564738066
N        10.75522757295194    8.13594536838717    5.82333309362923
N        12.75473506126871    6.44856163550966    1.07569660810167
N        11.55593822245379    6.09839464225543   -0.73661153635572
O        14.78695808199664    6.25919840705776    3.25516811346840
O        14.58501533373070    1.07620596758016    5.13308995105938
C        11.75556609785052    8.95701482982271    2.04830703716805
C        14.14498731639831   10.17323039481097    1.97944493689741
C        15.95874069560531    9.09403903228419    2.37709916657345
H        16.54909703825702    8.24275419052531    2.64380656203693
C        16.31737879916117   10.36354825503248    2.05345723270478
H        17.27452408638286   10.83670861336305    1.97977111871542
C        15.03138801528468   12.43088830272340    1.43338369111029
H        14.09463198757285   12.57691494911368    0.89634929391880
H        15.86696900647965   12.71779948031479    0.79592766327019
H        15.02675355054154   13.06457372174013    2.32362807066287
C        11.26126097593310    8.22864669336527    4.57701068123608
C        12.64390446252001    7.03140123761859    5.70249855009425
H        13.51943599268506    6.43904823974563    5.87036011400569
C        11.63304875907077    7.36588671932134    6.54587923023708
H        11.46247897415696    7.13412006840965    7.57657215467411
C         9.52022576114751    8.70388025387738    6.28194410549351
H         8.68482650050954    8.02959717570934    6.07748574138306
H         9.34154225581208    9.64422739360959    5.75988643468131
H         9.58017197129860    8.88479311428012    7.35407026803512
C        11.80847797781556    6.93042586064787    0.29385247146671
C        13.13703825309295    5.25904530152358    0.52728756656588
H        13.89785485358834    4.66712760677014    0.99285304315655
C        12.40639034174234    5.02950045938185   -0.59436770446373
H        12.41002117098733    4.21646719996747   -1.29014862838624
C        10.60549096776144    6.31116976295258   -1.79016964145729
H         9.77795233770077    6.91028759482160   -1.41088102304648
H        10.23122857149471    5.35082829627117   -2.14194521177602
H        11.06699129457094    6.84380986315095   -2.62530244649063
C        14.68491079337317    5.02574188280231    3.69580815186725
C        15.83927875137798    4.31990906226620    4.08522484135540
H        16.79418887138887    4.81884648313723    4.01115650056068
C        15.76598343533575    3.02736935622801    4.55072171464766
H        16.65734039128181    2.49517564473526    4.84711882913389
C        14.54081000685037    2.37161443829426    4.65224075534385
C        13.38963172272331    3.04502665302409    4.27408042327403
H        12.41962917065988    2.57340431080387    4.33637862225611
C        13.46643220090921    4.34551993760956    3.80581461440091
H        12.55961271923968    4.86308315594732    3.51271201615128
C        13.37464094247433    0.38273011156767    5.25434947695878
H        13.63193820473994   -0.60076940751386    5.64700973019269
H        12.87501840215127    0.26302980812901    4.28551508168959
H        12.68891343956735    0.87944532930143    5.95124092324490

