98
CSD_code = DAJPAH | q = 0 | S = 0 | Stoichiometry = C32H59HfN5O | MND = 5
C         1.66326180739731    8.75917643281620    4.94664813533960
H         0.60433814703240    8.71435694531385    4.65206952587119
H         1.98080093659755    9.80032205179074    4.92119765030656
H         1.74620404951986    8.37503732088107    5.96213694319770
C         2.22079584071189    8.41788710058596    2.67961366117416
H         1.16667229011898    8.25964805785046    2.40413759884652
H         2.85373447843400    7.88205058879925    1.97747193938785
H         2.43424720364214    9.48381910224930    2.60637333082607
C         2.11015947034147    6.54919940295002    4.19549201398929
H         2.55916495136411    5.99226915116409    3.36884771408269
H         1.01520997328847    6.42915050978185    4.14557775171990
C         2.61511143746586    6.04031638960885    5.50616930879936
C         1.93547389496869    5.45108512096635    6.54811827243286
H         0.88771613601433    5.21569747051189    6.57754050546820
C         2.88433328431549    5.20878173149931    7.55779899698201
H         2.71298954186713    4.74591094738259    8.50945629765423
C         4.09373201394800    5.66824701378667    7.08388521317544
C         5.42452563504972    5.62041844003139    7.76364560399707
H         6.19433936181748    5.97463527956750    7.05141610599669
H         5.42114567594638    6.28714092057335    8.63515952514938
C         5.74750298142615    3.29217111120479    7.21968669235778
H         6.56524578712095    3.45079153549129    6.49736868369001
H         4.79821981923928    3.32309411395547    6.68868552029919
H         5.86563335762246    2.30602626873909    7.66810626120916
C         6.97448789402436    4.28603401055208    9.00586325578794
H         7.14787041404311    3.29076684952691    9.41344533333433
H         6.90477318898310    4.99125981150612    9.83339825435814
H         7.83990507867100    4.56413904192741    8.38088068062464
C         7.91425982297808    8.11053611971642    5.51871807627047
H         7.40104831503178    9.07461115425041    5.45467968768523
H         8.77650627588843    8.16313451661008    4.83514844423057
C         8.47082209943107    7.96152583834970    6.94774294945869
H         7.66391080458408    7.89242119371885    7.67324017119276
H         9.08913058009005    8.82360654819033    7.18845584139935
H         9.08603575739665    7.06943060367069    7.03716835925225
C         7.70864468052163    5.82496016123358    4.79164069574118
H         6.98381100799554    5.00339114109813    4.79048019212934
H         8.46336744910288    5.59596810885113    5.56128473182340
C         8.42466257475983    5.85409263424069    3.42948302418528
H         7.70482391517231    6.04425346435225    2.63713068709931
H         8.91789328626784    4.90036289747745    3.24995019719531
H         9.18454514015583    6.63102761107214    3.40515360582270
C         4.73957278072435    4.57347214895059    3.13662614530363
H         3.75493430149183    4.23371207145124    2.76439806220362
H         4.72428716399381    4.45029357396341    4.22597927187890
C         5.77841563525489    3.59645247547619    2.55718045888940
H         5.74716601892037    3.58412080281486    1.47089562524139
H         5.55122961075691    2.59393059907050    2.91352982316234
H         6.78366729263221    3.85479759557267    2.86931474135906
C         5.04664633030765    6.27509515166112    1.42971392784397
H         5.99027977830738    5.87639318845863    1.00909932388585
H         5.07481488297823    7.36288642904980    1.31073996351326
C         3.90655620970296    5.72795264291002    0.54608804777589
H         3.96159279352747    4.64683248397358    0.45425275127673
H         3.99014869889301    6.15677971493025   -0.45032361596816
H         2.92973344318008    5.98379035039285    0.94995422422891
C         5.78819470288547   10.33999889653375    4.31117737395729
C         6.53835799817343   10.94970934990511    3.26232903988445
C         7.16673639247984   12.16210010762531    3.48312027749196
H         7.73047330537676   12.63502553609024    2.69740447682055
C         7.08349326877282   12.80743504708865    4.70073958238118
H         7.56391309802734   13.76293498761489    4.84809522398688
C         6.38199769893942   12.21262842768924    5.72403865209795
H         6.32502679278204   12.73033065828616    6.66774737506158
C         5.74754758420252   10.98402057165132    5.57724120536915
C         6.65576634079563   10.27913489736197    1.89489851199062
C         5.26031906888018   10.14624111373851    1.27326355640155
H         5.31831488958179    9.65652366580705    0.30224472372309
H         4.82239895726114   11.13334495795761    1.13475045908439
H         4.61576931241467    9.57004983977044    1.92869139482479
C         7.31626518573324    8.90464336123124    2.06979934609604
H         8.32290560695491    9.03859809594436    2.46182643503158
H         7.38997244501066    8.39757543240404    1.10877571760600
H         6.74971876151690    8.27461158278523    2.76573303714401
C         7.51939387791552   11.06666099653270    0.90016349909449
H         8.53756647597494   11.18542847708276    1.26266329787423
H         7.09553674213257   12.04644013801815    0.69371029991316
H         7.56165935437730   10.51819746467373   -0.03940673951258
C         5.01136240825029   10.47928728856002    6.82300661500000
C         4.62311038873197    8.99762264263780    6.76731810516811
H         4.10374624214126    8.72548398811424    7.68793733341783
H         5.51507681922331    8.37261436438988    6.67906836180075
H         3.95537279804305    8.81113568501749    5.92990956121882
C         3.73565678388979   11.32024301020650    6.98914963590301
H         3.11087458238209   11.24209995755369    6.10302176158320
H         3.98204868312318   12.36973949790116    7.12973399726212
H         3.16373136966265   10.98115288745993    7.85067967868226
C         5.88986525741000   10.65023282927418    8.07700404855022
H         5.45106060249093   10.10255390227161    8.90867380348845
H         5.97384347886842   11.68836600737101    8.38377987618519
H         6.88960614489261   10.26424031522432    7.89792101808175
Hf        5.09152874236713    7.29042878376312    4.43840472008065
N         3.94518494031954    6.17975316397801    5.82108035669525
N         2.49234352614950    7.96486810272874    4.03979446932870
N         5.73033750745407    4.28594144502569    8.27015136723846
N         6.99687876051119    7.04532013741007    5.13485591629445
N         4.93852580650339    5.99217907913323    2.85331679531730
O         5.10741599639364    9.21593936366484    4.06516964223470

