63
CSD_code = DAJPAG | q = 0 | S = 0 | Stoichiometry = C33H25Cl2PPdS | MND = 4
Pd        6.77601976617134   -1.65469120909124    1.22281707743393
P         8.30811468943766   -1.07355727918634    2.76438764206173
S         6.61989260894959    0.57462394503286    0.32968147208329
Cl        5.30791145763405   -2.48114373528821   -0.30673139743529
Cl        7.09830876672873   -3.70992922846715    2.06910664221576
C         5.77278465710480    0.57999086128096    1.91465651776699
C         4.48476659359433    0.01751897143833    2.06475956505763
H         3.98581745124059   -0.43684908670571    1.21599437784433
C         3.87344042080548    0.05973823992771    3.28748795108091
H         2.89383060493046   -0.37724527854511    3.41352545124488
C         4.50033721960575    0.65712998331956    4.40315084170764
C         3.87831013003729    0.70461347692683    5.66616508910182
H         2.88914031771792    0.28302593971545    5.77072589432152
C         4.51283037098459    1.26760368241011    6.73809198295924
H         4.03049807294887    1.29824653338124    7.70364267329225
C         5.79811611376613    1.80918800722014    6.59160628026880
H         6.28894874066515    2.24897512504471    7.44704319545325
C         6.42981945407251    1.78145256883708    5.38021104674028
H         7.42031822785690    2.19691406462134    5.26924194697835
C         5.80056304021270    1.20848968183461    4.25531929094569
C         6.43295649321021    1.15423417023561    2.98688704204251
C         7.82651160330929    1.62589108469527    2.80407301548309
C         8.13715768205138    3.00272619278561    2.71248164642641
C         7.14312780233110    4.00275689589051    2.78345796148830
H         6.11405824973320    3.70318114351470    2.91726993058222
C         7.47782156766367    5.32365974742756    2.68610420072871
H         6.71228598993405    6.08332665518785    2.74113549128698
C         8.81728907091900    5.70744729520501    2.51319760556844
H         9.06227346004332    6.75660106886727    2.43926177920506
C         9.80108078270634    4.76216786220660    2.43651363116075
H        10.83317145653045    5.05118877781773    2.29942890011814
C         9.49179348108398    3.38927352670285    2.53015005888269
C        10.48700030695742    2.39331237607354    2.44038250672192
H        11.51423143449700    2.69809744310028    2.30032827257463
C        10.16538956569870    1.06856161958043    2.51993811482311
H        10.93045416423055    0.30866789200008    2.44110300141393
C         8.82803242805136    0.67518279751982    2.71009364242928
C         5.25150039483429    0.70010443897818   -0.85753340503893
H         4.81618083426652   -0.28865083567130   -1.01371793280616
H         5.69678712660370    1.06083786483303   -1.78031508416870
H         4.52969653135193    1.41919245760584   -0.48242856939590
C         7.83999220837437   -1.25031173071711    4.50667725389856
C         6.61242910550227   -1.82947838512343    4.80936826686323
H         5.98901318546951   -2.20813741752619    4.00316284353286
C         6.19998488511819   -1.91902815674839    6.12592377347332
H         5.24752469261640   -2.36876237928330    6.36220135558006
C         7.00621887858825   -1.42741084540849    7.13910252208988
H         6.68414992717822   -1.49929207141411    8.16731618712373
C         8.22075364260420   -0.83217850255846    6.83762819656195
H         8.84083710226071   -0.43760718074223    7.62938370296736
C         8.63696760559417   -0.73198709593081    5.52321230735781
H         9.56919982189733   -0.23926319927055    5.28030715232148
C         9.82479362483654   -2.01152138850005    2.44320116312310
C        10.04013076117278   -2.30977999441602    1.09669723310903
H         9.30282700196825   -1.98679702265566    0.34961122114165
C        11.15427839485412   -3.03288442647834    0.71889261133098
H        11.32061932550399   -3.26914326275457   -0.32147053456361
C        12.05000179820739   -3.47142718458809    1.68326200444550
H        12.91635247380240   -4.04578597764238    1.39056772245914
C        11.82679780639957   -3.19324764494165    3.02118895281636
H        12.51706510371996   -3.55336062953630    3.76996974860499
C        10.71497657594048   -2.46356641544547    3.40800293314851
H        10.53001694832645   -2.26518482676814    4.45379803194332

