53
CSD_code = DAJRAH | q = 1 | S = 0 | Stoichiometry = C21H25ClFeN5(1+) | MND = 6
Fe        7.73072346798416   11.00413410569825   13.95352121418718
Cl        9.68081290060825   11.94275783932194   13.76512974785122
N         5.90889549000982   10.24754451141818   13.97212929570687
C         5.40418542295798   10.19699952812926   15.34365187561061
C         6.56876352804658   10.22769665678392   16.32399858242771
N         7.52452650997844   11.28369987515376   15.95582048523657
C         7.09796911517536   12.58587327895569   16.45002573576987
N         8.84850188078317    9.48414241038633   14.60742151156431
C         9.36694216420300    8.46984976204778   13.91713325293160
C        10.41570233310323    7.69267542933222   14.37055394316138
C        10.96656001833529    7.97048600722011   15.61127526250746
C        10.43533952343878    9.02296097027727   16.33711249564282
C         9.39100153151764    9.75901481155792   15.80095770392681
C         8.83544019615693   10.95346195540936   16.51134226599017
N         6.83358894138325   12.61643329829496   13.45279448559610
C         7.36251955714785   13.83859335707306   13.43916615416227
C         6.62282176580534   14.97703753354551   13.17633559075018
C         5.26559165348109   14.85589822801341   12.92512284907412
C         4.71219283570420   13.58412807012990   12.92686194447920
C         5.52893977956358   12.49707806168605   13.18381289167898
C         5.03932214519233   11.08318566634235   13.13372979336363
N         7.75603346242543   10.33247491892159   12.21067269300791
C         8.48666326794942   10.70986776635190   11.16924238760996
C         8.47168264573692   10.02765839289894    9.96422797192110
C         7.65707290892017    8.91455262321717    9.83348851209530
C         6.87375963831607    8.53242018881552   10.91722135847067
C         6.95308475477811    9.25984648216997   12.08914914727346
C         6.13612057255286    8.96255860556414   13.32261861521274
H         4.78598191564583    9.30919745185102   15.51556765929536
H         4.78249511889532   11.07817541811679   15.50777542230442
H         6.19665055022148   10.37457853134024   17.34537566335759
H         7.08814833986884    9.26973014434926   16.28977329130364
H         7.06598914723245   12.60784511469664   17.54419598387786
H         6.11125100309072   12.83126457911877   16.06564620875416
H         7.79947340638045   13.33974586895114   16.10056668329123
H         8.93486362792075    8.27187577192145   12.94938271253325
H        10.79442782841376    6.89312358756236   13.75572841690118
H        11.79002240942549    7.39202130160997   15.99761023530924
H        10.83514313868048    9.29186902708805   17.30153123590613
H         8.78910388881535   10.78658243663256   17.59562437544684
H         9.50656691125479   11.79316809630201   16.31068509424180
H         8.42301579210977   13.88336203042319   13.62968478670804
H         7.10681661889219   15.93943179324804   13.17179486229005
H         4.65371880886020   15.72110812576284   12.72697777191845
H         3.66365138853168   13.43329872919197   12.72349323663297
H         3.98879005881147   11.00261290166347   13.43222491819341
H         5.11037425610511   10.74831156928201   12.09559421833580
H         9.11158302739724   11.57319821820841   11.33417238509630
H         9.09004532234719   10.36357324876174    9.14866983086839
H         7.62171810484010    8.35606962140718    8.91211161232068
H         6.21769661979696    7.67838554620989   10.85261557097254
H         5.20005522319464    8.45006705476489   13.06374306501531
H         6.70285948201298    8.32317349681948   14.00183699191430

