95
CSD_code = DAJREN | q = 1 | S = 0 | Stoichiometry = C46H40I2N6Rh(1+) | MND = 6
C         7.95183811202730    7.08294286173660   22.70937520800907
C         7.68657726269781    7.62665474880751   23.95605860413195
H         8.28261952836931    7.34831288613350   24.80952987792854
C         6.63655563618037    8.51169843767370   24.08910422044714
H         6.40033368850943    8.90705357875712   25.06496814537487
C         5.88380769378533    8.91159002422508   22.99068280129987
C         4.70786574709872    9.81990892812570   23.21622886386402
H         4.96792049644419   10.57223391532439   23.96336316091234
H         3.90345024178926    9.21161765859720   23.64427378541276
C         4.20305822252071   10.49164517175375   21.94409752507168
H         4.88714363972151   11.29014565256394   21.65040245994762
H         3.22696685486466   10.94045470498020   22.13074097214198
C         4.11700983323561    9.46672301435356   20.82102682310294
H         3.48803888220040    8.62799452356577   21.12979723949002
H         3.67134982928857    9.91097857220139   19.93028376789378
C         5.52061906624749    8.96928865802100   20.49968861178472
H         6.10829561988640    9.80626516901672   20.10813002943178
H         5.49213840121533    8.20821462422225   19.72015891501425
C         6.21991861359133    8.44212572858798   21.72062777957431
C         7.25514518107269    7.51536792580413   21.58324704071013
C         7.64129597942451    6.96064319205062   20.26126081552640
C         8.60810394185110    7.57360606121568   19.46158599287250
C         9.20977347030338    8.88251062327474   19.88973647960027
H         9.28125930895329    8.92960083483872   20.97630204067187
H         8.52965083304049    9.68298580989609   19.57966411202979
C        10.57111480336714    9.12244154390550   19.24925638395642
H        10.92918849644781   10.11882299279496   19.51090052263991
H        11.29284957537266    8.39478335040457   19.62885220459252
C        10.43879500011778    8.98101046912138   17.73870721577127
H        11.37343328775268    9.24685126192956   17.24388727587656
H         9.66452092005425    9.66162736213609   17.37923746264788
C        10.06611115549961    7.54457757246223   17.39058199957672
H        10.94178660882353    6.90213508968285   17.53468308642701
H         9.78721870633234    7.46970388060189   16.33784289620979
C         8.95827260994024    6.99232989137357   18.24261530426137
C         8.28527404507327    5.85608209958643   17.80788216321351
H         8.53162349442562    5.42993020131962   16.84757556665837
C         7.29857894445656    5.26908580388908   18.57306662030132
H         6.75978378664880    4.40948001012420   18.20991822274556
C         7.02231024375499    5.79087385594094   19.82674655002922
C        10.33657821719273    6.67580679496892   22.49245873824318
C        10.85617796739282    7.93320166388428   22.76405777011532
H        10.22402681494057    8.74517453035350   23.08653733650523
C        12.22061808583999    8.08719103634047   22.62699816238695
H        12.66736987995931    9.04761173477709   22.82837133980065
C        13.03893684057506    7.02558319590726   22.23924201335316
H        14.10007390458267    7.19081905687833   22.14065371329547
C        12.52894546985676    5.76631481967658   21.99264507626777
H        13.18186013183708    4.95617283483927   21.70932867098433
C        11.15785708805016    5.60165078552678   22.13276689680956
C         9.03999337748022    4.87038958243901   22.24533907351826
C        10.78826430119040    3.18647469782284   21.68774145231211
H        11.86768631225165    3.22908702425079   21.54461996813099
H        10.33415292401536    2.84060526628392   20.74997443547766
C        10.46390750556495    2.21318944192103   22.78903443561760
C        11.44682052504826    1.33621531425709   23.23154407186657
H        12.42083557268078    1.35372512723223   22.76932856008845
C        11.16747961106163    0.45352680353698   24.25812113908793
H        11.91592513374201   -0.23739638547425   24.61185302672246
C         9.90690015423325    0.49977081824860   24.82995634261969
H         9.63656408554302   -0.14184975926486   25.65205187602480
C         8.98366485828665    1.39833998032559   24.33224074287527
H         8.00585275836795    1.45391880969112   24.78932935913465
C         4.66362263690011    5.50064145773300   20.32103800479970
C         4.07723787781559    6.11543423801206   19.22425096214329
H         4.66978959575462    6.47442989702128   18.39781582657621
C         2.70145128140313    6.22199647963785   19.23082301670653
H         2.20322430220657    6.69244921199590   18.39837402674454
C         1.93706887875853    5.72835866257741   20.28864944623849
H         0.86449434761537    5.83530776469987   20.25432637944083
C         2.51521738772324    5.09455464035279   21.37070531032014
H         1.90389165132862    4.70652938300474   22.16983142549812
C         3.89852303568178    4.97987642208197   21.37032421222900
C         6.06114641752619    4.55412223505775   21.78798740478386
C         4.40420566181265    3.70776141803162   23.44310463238103
H         3.31999029721854    3.76855620726707   23.53403204885684
H         4.84737213751595    4.19701014018301   24.32039057570592
C         4.82710993201022    2.26369496968430   23.40901822437697
C         3.91812687916390    1.28068940910077   23.78115446958339
H         2.93002058069080    1.56657737778473   24.10462620177273
C         4.28765311849823   -0.05045845442167   23.73106724196673
H         3.59736403861119   -0.82691209324919   24.01987468462142
C         5.56091442416936   -0.35462861856525   23.27872345777070
H         5.89914632997739   -1.37357440415714   23.18897742035412
C         6.40712099458196    0.67950971935962   22.92957258640015
H         7.39381410373188    0.44666573657692   22.55484743544534
I         7.44382477047002    4.38665372108696   25.09550910529443
I         7.75512969652500    2.23684563842581   20.16724235308503
N         9.04602267200422    6.18991374448354   22.52896454858744
N        10.32022089559262    4.51449445448322   21.99300155245150
N         9.23564587715432    2.22742180423313   23.31609262940401
N         5.98277951192923    5.23736583567490   20.62687676481718
N         4.79734855173719    4.40833281494108   22.24708557492038
N         6.06870914497216    1.96877429323919   23.01163721985095
Rh        7.59712368682567    3.49798402827002   22.55059230844952

