26
CSD_code = DAJRAK | q = 0 | S = 0 | Stoichiometry = C12H9AuF3N | MND = 4
Au        5.06958710905564    7.01038600749689    3.55880603492912
F         6.03249440512627    8.63938280396815    3.11270061844206
F         4.57230418536832    6.71181639441690    1.78626310857662
F         4.27231360185859    3.59076683264624    7.34640334836034
N         5.46962603892477    7.22155277158192    5.46303473249833
C         6.12473127187153    8.27644469206484    5.92999969899374
H         6.58624283657648    8.91362565168788    5.19140314951188
C         6.18582701574781    8.54379068161561    7.28286902107535
H         6.75221874491142    9.38553507630657    7.64478054982272
C         5.44146155216689    7.74852403975644    8.13478775097846
H         5.38651418643091    7.98550793240581    9.18721705331554
C         4.73305390097904    6.64962339607107    7.65524204031292
C         4.85104646057523    6.34303612629662    6.29015206564061
C         3.82772847611287    5.92673358014307    8.59772007359729
H         2.96426921445397    5.51869238036899    8.07970898097208
H         3.48233352811680    6.61636902996146    9.36479621588437
H         4.34774132271337    5.10900099545297    9.09319410783382
C         4.30999773276257    5.19429401496002    5.57090649954180
C         3.98097512004568    3.93401682259844    6.07429932756782
C         3.41632240509830    2.95400443380140    5.27861338396721
H         3.17347492745801    2.00184110250411    5.72356982867343
C         3.20288348180161    3.20325323759697    3.93587417552731
H         2.75194255655306    2.44735933653822    3.31201426870847
C         3.62744008694752    4.40334422524325    3.38278857630865
H         3.53596123183953    4.58111716755333    2.32341965686406
C         4.19200860650434    5.37858126696286    4.17793573209622

