42
CSD_code = DAJTOZ | q = 0 | S = 0 | Stoichiometry = C18H14N4O5W | MND = 6
W         1.31540869393338   22.11231838803164    3.20962916807822
C         3.15537887919172   21.81044966510939    3.89734673239707
C         1.87697062626503   23.94434160083108    2.76253849036781
C         0.84525561456327   22.77056249674580    5.00319631579674
C        -0.52772247149574   22.54967457525914    2.59069148632370
C         1.72174485806231   21.82989222777604    0.07412959726061
H         1.38063730046028   22.84318729970493   -0.02862453338727
C         2.15245098209977   20.94125490851322   -0.91658613254849
H         2.22194014437596   21.11909128166312   -1.96952805170737
C         2.47826630967053   19.79062037237652   -0.24329311761722
H         2.88099238779055   18.86931074663936   -0.60753752588272
C        -0.24267262711227   19.59189605035975    4.34744792029064
H        -0.87897319596222   20.26913595404849    4.88610515881671
C        -0.25895928138980   18.19326314246153    4.33130463312939
H        -0.91802976015057   17.54054896772386    4.86490799389977
C         0.76374422822636   17.83660553853227    3.48849674571266
H         1.12546807245786   16.86818735697379    3.21463318505689
C         2.50043701482942   19.14471626912031    2.20004315513282
H         3.25870257435507   19.66195578456353    2.81950765485962
C         3.03764017171535   17.80996399553273    1.74811316467212
C         2.24800586029639   16.96716456313139    0.94366876851436
C         2.76278904555946   15.74134979472074    0.53834273072317
H         2.17618878035640   15.07948836951143   -0.07807036151483
C         4.03690761332366   15.35843095021443    0.92373479637426
H         4.41921248706686   14.40292479274144    0.59905799706099
C         4.81340361241724   16.18486386795614    1.71377603891427
H         5.80448010366925   15.88329072243597    2.01171225192022
C         4.30833680121642   17.40815089037257    2.12215007556471
H         4.90725395887991   18.06071451098071    2.73941551754255
C         0.16766079914587   16.64577089567562   -0.18147947445099
H         0.60679139360474   16.46076222667931   -1.16627785009761
H        -0.74559077459284   17.22632733615342   -0.29793436762548
H        -0.06855188540556   15.69264441321049    0.30085301746838
N         1.78663450926116   21.25751747892621    1.26063973209957
N         2.22520489531879   20.01163430960748    1.06781671034602
N         1.32177879057014   18.98245326460476    3.03293169664973
N         0.72314795838749   20.04639766830261    3.57269642568439
O         4.20723438321114   21.76997330877931    4.35884641203818
O         2.20363900128680   25.01674615679790    2.51347301770733
O         0.57553331954370   23.16570428408436    6.04719314351333
O        -1.57437266657280   22.90296105426448    2.29376221485281
O         1.01333149170138   17.43565251880678    0.62136946616210

