39
CSD_code = DAJTEP | q = 0 | S = 0 | Stoichiometry = C17H12N4O5W | MND = 6
W         2.41839538332337   -4.68850887437913   10.22411558757538
O         3.68002696792344   -4.11119291058877    7.41768143121100
O         1.57839531470744   -7.43259000099724    9.01027875636260
O         5.16654690165606   -5.98084274950800   10.92169266486331
O         1.36627523395625   -5.73016237372404   12.98520241821642
O         0.08076685893774    0.17087900117567   10.94136041565473
H        -0.43763143377848    0.83075763358491   11.41760911030508
N         2.88389890777059   -2.72442993834468   11.05007502945100
N         2.42300228085977   -1.57129729639052   10.56037580913374
N         0.43299594436394   -2.37211318055451    9.50073903329682
N         0.53718578909588   -3.66878366211065    9.80046902280029
C         3.18234846729035   -4.23629281629732    8.44639916420274
C         1.88092976785473   -6.41856519804811    9.45626951885349
C         4.15521921828793   -5.49984718591296   10.66745221539684
C         1.71567387665289   -5.28228212641533   11.99247243307309
C         3.64860835049129   -2.42491891556646   12.08210528186864
H         4.12803406344280   -3.19813930465639   12.65296992692343
C         3.70696661121749   -1.03810756929102   12.25540981184835
H         4.25154912601170   -0.49398891588530   12.99864873863212
C         2.91991942794165   -0.52235619724075   11.25638252300777
H         2.71036526321322    0.49450338416205   11.00018106619444
C        -0.68341160511059   -4.16782618140130    9.77543372548304
H        -0.85775329271895   -5.20394842173749    9.99827690994563
C        -1.60545856639974   -3.17536275139503    9.42683939863016
H        -2.66495879794191   -3.27644678294216    9.31604864498357
C        -0.85439837993958   -2.04091872312602    9.24677569405859
H        -1.15107683016429   -1.05913227991228    8.94412942862152
C         1.62677262112267   -1.56015798872450    9.34618605274430
H         2.23963323276354   -2.04481723866773    8.56151392347975
C         1.28547996190514   -0.15330950978755    8.92502265667458
C         1.73490253115883    0.34026421572861    7.70985540277972
H         2.32975045065563   -0.29582904166118    7.07203195278398
C         1.43101454774863    1.62993603681531    7.30995336218978
H         1.78847032013843    1.99814687195677    6.36199178943382
C         0.66838105978005    2.44062822899630    8.13200005366460
H         0.42598036595183    3.44764759773366    7.83020951672686
C         0.21119525199073    1.96493304649852    9.34761269856873
H        -0.38513114477690    2.59658677858802    9.99202300461993
C         0.51243595261610    0.67138534002679    9.75500582574090

