43
CSD_code = DAJYAQ | q = 0 | S = 0 | Stoichiometry = C16H15ClMoN2O7S | MND = 6
Mo        2.12070786146627   14.77307776526886    3.81083561456328
Cl        0.68991867457382    9.35066741394465    8.50340895068877
S         1.67664380663646   13.89336480432569    1.04347799157236
O         0.98105089718089   13.41827386558742    4.33295139613916
O         3.81752520124556   15.43193357465200    3.15813842769781
O         1.23513858816783   15.42480142038985    2.55033410822841
O         2.10373175777889   15.65365557293390    5.19835767656206
O         2.51787397392579   13.34965724628081    2.17913858415655
O         7.47763164206403   13.94180627264548    4.60185645300126
H         6.56209098597524   13.63091737254210    4.78439850958194
O         9.74869231498874   17.31475080000099    2.18583790465042
H        10.50816269870146   16.87724090688508    2.59143748648888
N         3.58164475579557   13.48909260106179    4.67584310951169
N         4.85278936267918   13.88481407117062    4.44135648383927
C         2.11513277139667   12.04204432821502    5.90839661096030
C         0.92972687393849   12.52094442386514    5.28907838390624
C        -0.30488510317735   11.99383697708521    5.69853814339555
H        -1.19984403027218   12.37275919053656    5.22677748717172
C        -0.38006254388498   11.03161762807841    6.68148144000103
H        -1.33567874712253   10.63857749006209    6.99107102823005
C         0.78830013902497   10.56256830596070    7.27726131385617
C         2.01816261022756   11.05541617445311    6.89944306485175
H         2.91645904691477   10.68784618502660    7.37154781177041
C         3.40361083620444   12.54583910454714    5.53883473870068
H         4.27993557822924   12.12083722768433    6.02959400288895
C         4.90140211209878   14.92733902782813    3.63940202589468
C         6.18999684119996   15.51098718897329    3.29357050104103
C         7.40793180847736   14.99764149255808    3.78647478020739
C         8.60029827106878   15.60982703082601    3.40868356409787
H         9.52436122773951   15.20422444777863    3.79500728055087
C         8.60321630650488   16.70894387193117    2.56442206873194
C         7.39428700397224   17.22094023928070    2.07788881073915
H         7.41905700036850   18.07777469399025    1.42555793294709
C         6.21471987407196   16.62562732369311    2.44352001588728
H         5.26782008067686   17.00373475686700    2.08587784958327
C         2.03766842023899   12.55450908518113   -0.19829007463835
H         1.87240044957497   11.57623617742029    0.23522157393596
H         3.08029075522232   12.65339547502804   -0.47863657068291
H         1.41341533276949   12.69785070760927   -1.07207261802871
C        -0.00114846955450   13.26968594831611    1.39352683253576
H         0.09185933035846   12.26937058168221    1.80592814506585
H        -0.57321343378815   13.26073403319244    0.47237693560584
H        -0.45182286369968   13.94573719461190    2.11584422408834

