37
CSD_code = DAKDIE | q = 0 | S = 0 | Stoichiometry = C18H16MoS2 | MND = 12
Mo        3.84987904594463    1.92823043416192    8.19961751225635
C         1.63622356139734    2.15000148346134    7.20122131804991
H         1.07170033192465    3.04806873811959    6.99699272480672
C         2.52615094565678    1.52592546901478    6.31359878787068
H         2.74646140664178    1.84321055582061    5.30481495728463
C         2.93719786308624    0.29650635205112    6.90056137963671
H         3.44275907393753   -0.51191974983027    6.38040635800936
C         2.29541018134451    0.18833421020675    8.16625896424009
H         2.30751665281685   -0.68491361111699    8.80182186167054
C         1.49428522333882    1.32845234890913    8.33973061696230
H         0.79975143874632    1.49093617055548    9.15122487404943
C         3.10416433433889    4.14878714818919    8.87139040357348
H         2.31985056117522    4.75750623686052    8.44562269508316
C         4.45306009236029    4.16596049511772    8.48349090656325
H         4.89135878350022    4.80542197674516    7.73137746671260
C         5.17764723501490    3.34300746707633    9.39119698226117
H         6.25836908284907    3.32246721665596    9.49748086239879
C         4.24671632957297    2.81167503778775   10.32663142973278
H         4.50050027919346    2.24570840110373   11.21086996869268
C         2.97693600404339    3.31525654597104   10.00273012008877
H         2.07971454028979    3.18052308143978   10.58916606919504
S         5.58497475605086    2.03727172332140    6.52142097027382
S         5.27680754955744    0.17952603126604    9.04215706043402
C         6.75698379833345    0.83266866055329    6.90917420610706
H         7.59330268466801    0.81639813459164    6.22885748123029
C         6.65779280444625    0.02050324019733    7.97204457456023
C         7.64161466839336   -1.00298174836009    8.31790498040387
C         7.82572472058337   -1.38733191667535    9.64522460271835
H         7.22775932662493   -0.92061863856191   10.41376628409557
C         8.76140739028539   -2.34714374833485    9.97847625985408
H         8.89287085521602   -2.63031272302568   11.01291685108891
C         9.52882810906591   -2.94497037148115    8.99305655870348
H        10.26002072465396   -3.69627742492891    9.25310224753732
C         9.34803260048950   -2.57814854028567    7.66937225195154
H         9.93643125430060   -3.04757411721570    6.89395123752660
C         8.41340621496860   -1.61886027899240    7.33157512466449
H         8.26628957518126   -1.35509429034054    6.29489304971322

