36
CSD_code = DAKDUQ | q = 0 | S = 0 | Stoichiometry = C17H15MoNS2 | MND = 12
Mo        2.54340230869496    2.00139728716247    9.11065925674434
S         4.21463244023998    2.03405040901180    7.35845085344077
S         1.67708775125356    0.20220215604421    7.75523697828666
N         0.67360324530503   -2.42126525271031    4.44434125413485
C         3.81236282058058    0.78556931457204    6.24073623613024
H         4.48773263209864    0.73012735689191    5.40184382465870
C         2.74307231356060   -0.01374212696003    6.37830751131876
C         2.38675071595871   -1.06580554904026    5.43526545924763
C         3.34235519434033   -1.70533425413311    4.64233025490014
H         4.38722941732418   -1.44579095679976    4.73256526438040
C         2.93809775961452   -2.68720913045716    3.75720690343947
H         3.65621583063494   -3.19884908663988    3.13427360582291
C         1.59034999006081   -3.00996021419578    3.69434706542807
H         1.22578622491787   -3.77456518401590    3.02096160503667
C         1.06058149755073   -1.48367716351165    5.28459942493363
H         0.27783726145340   -1.02822731399784    5.87687024521283
C         2.57703984719646    0.31600027105900   10.72259692570090
H         1.93384191212245   -0.55127437737847   10.74776973307244
C         2.41790674579577    1.48813871427120   11.47840604674266
H         1.61398724122189    1.68365747759819   12.17320231073952
C         3.56306338399956    2.29445635884112   11.29722096468784
H         3.77933425068049    3.21085375018696   11.82668687912480
C         4.43924545333632    1.62864531775851   10.42721375991600
H         5.44872076591022    1.92873735368462   10.18707816350652
C         3.83753253999585    0.39043362461642   10.06546815476695
H         4.34716876122672   -0.44088296779664    9.58716080849406
C         1.35931126084009    3.36861927468385    7.72775496808110
H         1.24940381635874    3.30957574258971    6.64885701437817
C         0.42064657020515    2.88100501320070    8.67923914935901
H        -0.46758901339368    2.31159298911406    8.44836288745194
C         0.75365474265300    3.42489569424916    9.92925135819941
H         0.16857416748150    3.32807033906262   10.83224025467476
C         1.89156050834809    4.24556312814621    9.76892784562886
H         2.32276983621031    4.88018931484575   10.52943755656248
C         2.27451160350835    4.21240726433373    8.41918760452251
H         3.02961820265675    4.83029542573199    7.95584187125806

