82
CSD_code = DAKDUR | q = 0 | S = 0 | Stoichiometry = C23H53N2OsP3 | MND = 4
C         4.19816793370469   14.02770989885911    5.79105577765884
H         4.34585020358123   14.72511928947169    4.94794213712415
H         3.61389550398256   14.58591887424609    6.54589409278452
C         3.38329190703956   12.81440298833657    5.34541439697147
H         2.68607091153182   13.07266734085282    4.54616592751785
H         2.80774805186535   12.45545066299478    6.20022457922608
C         4.63505379472309   11.59390149658504    2.98649972075159
P         8.17569987082200    9.01541340362771    5.39482127154190
C         5.08759577123184   13.03692795440770    2.74099359311946
H         5.44506163798041   13.15579864431147    1.71853503689274
H         5.90841169242602   13.27822805227814    3.42519828900090
H         4.27527630973934   13.74293608248689    2.89641474580372
C         3.34655449999946   11.31550413962371    2.22049211069917
H         3.47562570838192   11.60536149437413    1.17719345673770
H         2.50940512612836   11.88185652616264    2.62443698385020
H         3.09598546442237   10.25762867432988    2.24083232658307
C         5.75803626951372   10.67258193377066    2.51060374938934
H         6.07705733533880   10.94666941517739    1.50510666984331
H         5.44396053174898    9.63351236636232    2.49004939591753
H         6.61000187725646   10.76384014036674    3.18891731374556
C         3.57037316264397    9.93250685193774    5.41454013572864
C         2.07490297054134    9.92539371132438    5.10566488195342
H         1.88520933546272    9.90494819744958    4.03703377736057
H         1.56891996620463   10.78990126554815    5.52792145662685
H         1.62659534085227    9.03184080563432    5.54171228971842
C         4.24155057410152    8.69881222042393    4.81817675029838
H         4.01161633502202    8.59199124925708    3.76059575836102
H         3.90343019910163    7.79523757665080    5.32694343740135
H         5.32069164092467    8.79224333542625    4.94599003482469
C         3.79000829729813    9.89583105164610    6.93157557944491
H         3.39321676547880    8.97382401676058    7.35606198071729
H         3.30432811915287   10.73329070656413    7.42915155681735
H         4.86321191503003    9.94720779673868    7.14161119877986
C         6.05430065476616   14.85102181216624    6.98860877967208
H         5.27176985114822   15.35524559578185    7.58477548100517
H         6.35639271961119   15.57531310944796    6.21192517187317
C         7.23271287464282   14.52888111328046    7.90649761728229
H         6.84081576348679   14.28841113470342    8.89595414007261
H         7.90759449512061   15.38141893012136    8.00276337915350
C         9.56636523155673   13.70701771212006    6.33151417027852
C        10.60706921868047   14.45587602718122    7.15655935149779
H        11.29463275199480   14.97522132943638    6.48829652759111
H        11.19247995465376   13.77152042333957    7.76581811968898
H        10.14702644164787   15.19730209574084    7.80707578005943
C         8.93848915560673   14.64815693585913    5.29821922882259
H         9.65893786454760   14.89401397063088    4.51859909209210
H         8.60603639147906   15.57827518540747    5.75307221457257
H         8.08091922273999   14.15001536710962    4.83281421252086
C        10.21139914647894   12.55072251134535    5.56841323651320
H         9.42814385801857   11.92574750716139    5.13285030847972
H        10.82338282271302   11.93265525476967    6.21829315674274
H        10.84733585077048   12.92837099745719    4.76786701661034
C         8.59701769398719   12.17923545420670    8.88806802807990
C         9.20650299851755   13.07507382554565    9.96381924709497
H        10.17884492984482   13.45500403791102    9.66601936139352
H         9.34097639954585   12.49372023445474   10.87680508428149
H         8.56506972703066   13.92055640115012   10.19964479649583
C         7.29038178959020   11.56240600180838    9.40204030128492
H         6.59006736164662   12.32353091688049    9.74037449455463
H         7.48538792963830   10.88916717449819   10.23650187918665
H         6.81631437218557   10.99388804484108    8.59415875297785
C         9.54728392180653   11.03559138374758    8.54557361165014
H         9.14272010111910   10.48829006954442    7.69275107153318
H         9.64516869696716   10.35149813352165    9.38930390980491
H        10.53993190847126   11.40457656008071    8.29808822233596
C         7.90744069155919    8.06666454348398    3.80346883122508
H         6.85941974777797    7.80032737961272    3.69193214804951
H         8.51156491159450    7.16316925587248    3.77481027249584
H         8.19133241290872    8.71322233369345    2.97451190644643
C         7.79876755001652    7.72645109136769    6.66907450926590
H         6.72705122040305    7.53627167852422    6.66123212454719
H         8.07479173450258    8.11996853027729    7.64586690562638
H         8.33789213473007    6.80205771376240    6.47955753283413
C        10.04911501509686    8.96468882074629    5.36557649266743
H        10.41472285968141    7.95593621976403    5.18940995316635
H        10.45253815975423    9.33180270846430    6.30590583782382
H        10.39354610641380    9.61463451982990    4.56262056184107
N         5.49502973172049   13.66462420941894    6.35053991459299
N         7.45604470988735   10.35509699000517    5.59885397785397
P         4.55995875939209   11.45855135215998    4.87755894089248
P         8.07116620440707   13.00346472186258    7.26277780914839
Os        6.43714092690267   12.03638451593393    6.01766612312798

