72
CSD_code = DAKGUT | q = 0 | S = 0 | Stoichiometry = C32H32IrN7 | MND = 6
Ir        6.17674217832131    7.38926556738691    3.34651561124988
N         6.95373282012377    5.50630330038836    3.66018421756147
N         8.17281738974671    5.07415753612189    3.86723012781915
N         4.45213724663543    6.08483943440823    3.08841577435217
N         6.65282037028107    6.63843969681880    0.27713773204261
N         8.18936818900138    7.71800246146116    1.32186869101569
N         5.74469376273657    7.25142992508274    6.49263861802377
N         4.74249519751050    8.80923105480113    5.40016704402321
C         8.13929917380653    3.73679339471922    3.84997791246974
H         9.03644662384020    3.16513522487181    3.99746133057322
C         6.84906077305561    3.28365705384293    3.63106630481949
H         6.54159278822097    2.26146159852317    3.55648560953771
C         6.09203815060116    4.46103368011364    3.50974818907269
C         4.70894762388416    4.77063751443298    3.26901644382875
C         3.65725946128780    3.82840427608896    3.22542763195290
C         2.37870556630986    4.28598847593958    2.97601668972590
H         1.55765278620215    3.58253101876322    2.93910577941407
C         2.12661687727972    5.64268992289763    2.77543768662326
C         3.21147054840655    6.49507939608027    2.85138231142563
H         3.08272103967058    7.56076109439225    2.71105992285988
C         3.88523119508429    2.36731825862341    3.45044371825415
H         2.93503943138334    1.83848748706901    3.48814204124584
H         4.41562400334755    2.20238711239890    4.38663124148031
H         4.48205360096879    1.94450578187799    2.64310266800912
C         0.74584604554961    6.14762587740143    2.49748572489564
H         0.75088984723895    7.22735841693688    2.37091699656678
H         0.07575689655396    5.89485651419908    3.31864156440342
H         0.34832548328998    5.69020635634885    1.59181312486335
C         6.93681776247564    7.22291023647020    1.45941397442744
C         7.71755228270895    6.76074508188821   -0.57890604287512
H         7.70091621550746    6.36211268953173   -1.57287404019329
C         8.68454570038222    7.44452982394951    0.07993395469452
H         9.65984292379969    7.73839588699899   -0.24729565477325
C         8.75262774324018    8.39133802521590    2.41556765310962
C        10.00505640230411    8.97880518543721    2.37685661883535
H        10.61478244072072    8.93119855391495    1.48610409764725
C        10.47561874534937    9.63246082693518    3.50046715383881
H        11.45274119920670   10.09378556327050    3.48369946556431
C         9.69780871136073    9.69934832844324    4.64812800729010
C         8.44322993429333    9.09849599901600    4.65650572945619
H         7.85707467620507    9.16974295811777    5.56305930253646
C         7.92641551326101    8.42645105095582    3.55383155077408
C         5.43044738234091    5.95666922216473   -0.04159691180220
H         4.59734412848524    6.46023069442058    0.44654942728498
H         5.46286884677121    4.92081197990609    0.30645503849817
H         5.27656866107403    5.96191575570529   -1.12042766463226
C        10.21857797488887   10.39183930942827    5.87395550514898
H        10.83673402460294   11.24554571812581    5.60422397466114
H        10.83127311337839    9.70436513601993    6.45809888459945
H         9.39996376209125   10.73384309442181    6.50269242113384
C         5.56778118160393    7.74425803034470    5.25329569480733
C         5.03007987506291    7.99010860732820    7.39986251192585
H         5.02981926513839    7.76692722743927    8.44746094741465
C         4.40027037689823    8.97455225123243    6.71170609473510
H         3.76002277723183    9.75665061605926    7.06353937841450
C         4.44432541779651    9.56607630802922    4.25385670774930
C         3.56610743110171   10.63548157807623    4.26761575412494
H         3.06150962437001   10.93129275011452    5.17672862535467
C         3.33212309248900   11.32533320430377    3.09161939910656
H         2.64712024531155   12.16146293296282    3.08654940715551
C         3.97466508237652   10.94877165935331    1.91981958283512
C         4.84822443096309    9.86567386355407    1.94086018466507
H         5.33800426514518    9.59135693335501    1.01512964079192
C         5.11753702697438    9.13250141598759    3.09365615858373
C         6.57363256024174    6.12740467866597    6.82735479821729
H         7.34070566658133    6.01405235289992    6.06303883332067
H         5.98170473694459    5.20950647810999    6.87376114313263
H         7.04623214458892    6.29157226949865    7.79556301315661
C         3.73910767181438   11.71852233664913    0.65277782661898
H         3.99787653241234   11.12177598588499   -0.21880156078703
H         4.35712719745135   12.61691499867008    0.64343549125655
H         2.69843018270749   12.02787496915112    0.57360721407583

