36
CSD_code = DAKJAD | q = 0 | S = 0 | Stoichiometry = C15H17IN2Pd | MND = 4
Pd        0.69589941207169    1.56678038426750    1.97409024760595
I         2.02478489749273    3.63950702059004    2.64004899983780
N        -0.55409733742126    0.02716100559571    2.10675854422798
N         2.05711996244176    0.16911632450650    3.19372456708746
C        -0.50478047555860    2.45664171414266    0.64435018857588
C         0.05323328979392    3.31588776653355   -0.27775220092877
H         1.12531498426897    3.48105821317086   -0.30427794757520
C        -0.74198452028202    4.02699876764267   -1.18765798422631
H        -0.26788566774853    4.69807271923961   -1.88876000695657
C        -2.10145063204616    3.90239140648590   -1.15231981386318
H        -2.73000060871388    4.48577843092255   -1.80931181589442
C        -2.71211259033619    2.99825953059134   -0.26075176149192
C        -1.90101715254264    2.21760508744178    0.61618504948902
C        -4.11456207909051    2.85937562753530   -0.22661251969940
H        -4.70782972099592    3.48894335216366   -0.87423135905837
C        -4.71848338995328    1.95267065072586    0.60318270966198
H        -5.79412528544403    1.86258270043999    0.63081408587913
C        -3.93612278483509    1.11086163825267    1.38944681646097
H        -4.41653070118766    0.35204983074606    1.99155272201377
C        -2.55188474468802    1.20768520926660    1.39555119561497
C        -1.82843367951271    0.18870987801680    2.10699824305736
H        -2.45224802858327   -0.55306231313781    2.61652020662938
C        -0.01153944689260   -1.13919020269494    2.77701611317854
H        -0.36238048737722   -2.04884437201109    2.27098654174350
H        -0.37242488941344   -1.18319989636721    3.81489229498159
C         1.51782262733447   -1.11490291870866    2.73772193219346
H         1.91419605894351   -1.94872111012785    3.34263629349409
H         1.83506235254598   -1.26166593618411    1.69680819136481
C         1.90286776162530    0.34019275720466    4.63590707592477
H         2.37975700281092   -0.48132458594055    5.19029451975432
H         0.84484538825681    0.38534229401407    4.90605132945145
H         2.36500581082829    1.28121259244501    4.93617709531007
C         3.47034297303798    0.26146838260363    2.83229522513662
H         4.04541762332462   -0.57499812845041    3.25357549127373
H         3.88498558832150    1.19624849968803    3.20782634858880
H         3.57363848952499    0.25470767939038    1.74306338115690

