49
CSD_code = DAKNEI | q = 0 | S = 0 | Stoichiometry = C20H26NiP2 | MND = 4
Ni        2.29323203680880    2.47671100097661    6.00545171497035
P         3.47271989591011    1.42222465830036    7.50841025520767
P         2.70112297831302    1.00940404530671    4.44624545060262
C         0.18249335849503    3.94130520072724    4.28917793749892
C         0.79907321143323    3.88480513876875    3.03734579746242
C         0.06681381711807    4.09051142036319    1.88601857117522
C        -1.29398811794035    4.34486340427659    1.96203849986701
C        -1.91612949065573    4.39780521348555    3.19941934008446
C        -1.18880597541802    4.20206269878394    4.35696802376570
C         0.92602087586308    3.73659088608446    5.49555744030354
C         1.26104881500126    3.95808050220407    6.69741493909797
C         1.18493591366023    4.66103998307593    7.94357700292014
C        -0.04874253917585    5.13841102385148    8.39402845488374
C        -0.13280756634842    5.82094194141704    9.59176081103091
C         1.00332541239112    6.04322190396499   10.35402027088980
C         2.23155255353799    5.57580675366126    9.91233373934607
C         2.32296813847356    4.88663553206789    8.72018192044426
C         2.49106949310114    0.49997207781533    8.76042285866142
C         4.92440812117402    1.87298589319329    8.54539461932605
C         4.22582225589476    0.00989456652899    6.55506383017369
C         3.28915115637243   -0.44859483587097    5.44233472645794
C         1.47310746570149    0.17158076423399    3.36648186225303
C         4.09484068140142    1.17556510139833    3.25555226895942
H         1.86110968866015    3.67758951483428    2.99072660723670
H         0.55407523990536    4.04897434284401    0.92156006603720
H        -1.86810118163295    4.49909949135102    1.05995946234039
H        -2.97731541538755    4.59433723065699    3.26008955710546
H        -1.67471443846617    4.23903772954146    5.32119912384606
H        -0.93404721720711    4.96502371883860    7.79969734045736
H        -1.09093961565616    6.18524116583583    9.93501017830521
H         0.93137340835421    6.57863826558349   11.28967032946847
H         3.11905591279535    5.74991958983593   10.50498578396673
H         3.27502225408216    4.51315991977897    8.36494360737632
H         2.08728671789678    1.21189956577575    9.47827803970653
H         3.10529479824359   -0.23530393070339    9.27813113898405
H         1.65606681087177    0.00443928404378    8.26935950670459
H         5.65508792453797    2.40635356592047    7.94052286301983
H         4.59703261347890    2.52655624330579    9.35173856287924
H         5.38475506160891    0.98151800698791    8.96859781222913
H         5.15735208988318    0.38385700483069    6.11980332300463
H         4.47033810816385   -0.81552459030547    7.23028830595556
H         2.39809214288493   -0.90956030125219    5.87856652571930
H         3.77434011925031   -1.18485275962044    4.79464324573521
H         1.90450924920846   -0.70891688966375    2.89276059588455
H         0.61178555265529   -0.11858959203157    3.96476362469340
H         1.13649393296213    0.87068885200534    2.60291239462745
H         4.97369165371216    1.55304711687593    3.77427858035733
H         4.32420928793586    0.21754143757720    2.79135755504420
H         3.82061281014639    1.89310114252658    2.48475553393107

