78
CSD_code = DAKREN | q = 1 | S = 0 | Stoichiometry = C33H40N4Rh(1+) | MND = 6
Rh      -10.29460249866816    2.49731550532135   -3.91468327780307
N        -9.02366725402786    0.47206898629138   -6.03576988283596
N        -7.67581179615488    1.89242927362310   -5.17363945095935
N        -7.98963711739471    4.16741131088554   -4.69764130382660
N        -9.72957259385416    5.39898487749688   -4.93550404932011
C        -9.38269188611497   -2.20075582027886   -4.91757253675766
H        -9.88409604878325   -2.56923504193604   -4.02463699206050
H        -8.58072026509812   -1.52938548131692   -4.62129724276379
H        -8.93410885583641   -3.05982777368939   -5.41635860126111
C       -10.37126880137971   -1.55293916847580   -5.84155116873352
C       -11.51840179500087   -2.25168607132522   -6.19081704733560
H       -11.68571907089453   -3.22514527785009   -5.75461930394419
C       -12.44413625744829   -1.73793570449865   -7.08764156122194
C       -13.66824643644582   -2.51861033012550   -7.44488258843623
H       -14.07439458707607   -3.02212912471306   -6.57084150645304
H       -13.41773718072479   -3.28188285840421   -8.18140633924477
H       -14.43219081498136   -1.87466086814926   -7.87189594336368
C       -12.18299748047644   -0.50831328893615   -7.67657863347382
H       -12.86947645614489   -0.11368246883323   -8.41061749254811
C       -11.04947143053728    0.22297628413778   -7.35751449830006
C       -10.74048745759084    1.49199182404460   -8.08995859581410
H       -10.16621511965895    2.18076710723428   -7.47643455103172
H       -11.65495547973161    1.97917617933912   -8.41408543935580
H       -10.15317968109893    1.25876698455121   -8.97926107170747
C       -10.17163220757606   -0.28925549180116   -6.40005039529808
C        -7.77788280644525    0.20004404754641   -6.54001225297039
H        -7.61073384947029   -0.59845408016566   -7.23251122388438
C        -6.92494598537911    1.09807274631693   -5.99944839274887
H        -5.87004716621095    1.22635540622182   -6.12406435637832
C        -8.98120638099331    1.52377875329145   -5.19179605994486
C        -7.19058575199788    3.00959794742250   -4.40280199336978
H        -7.27346405689630    2.77532235742492   -3.32947891404888
H        -6.14533473803614    3.20467106536735   -4.65648914199826
C        -7.55839520230047    5.34144390406900   -5.25956488948077
H        -6.53166231973616    5.52808128867743   -5.49542756078919
C        -8.65481369673513    6.11685729225056   -5.40189411060316
H        -8.76272294310000    7.10237879068941   -5.80360934355561
C        -9.33197201777555    4.18175061084349   -4.50851554401283
C       -11.02961272589668    5.97644576176641   -4.85699369479379
C       -11.21360527290236    7.10814842356489   -4.05667158733734
C       -10.10640728000911    7.68306131220696   -3.22416548779224
H       -10.52133199026257    8.18030578012039   -2.35128888197149
H        -9.54242346252053    8.42584593220149   -3.78776211794661
H        -9.41500799674634    6.91326435892615   -2.88720362117957
C       -12.47156483336920    7.69006894356829   -4.01742117871515
H       -12.62254298983108    8.56478639542656   -3.40273258512164
C       -13.53957073523118    7.17653177882492   -4.74077195497096
C       -14.87861582497043    7.83807559574254   -4.67707540029584
H       -15.23373319586041    7.87596661546786   -3.64851269878784
H       -15.60896926951536    7.30536966790290   -5.27937267874392
H       -14.80952404420044    8.86260968226802   -5.03910221318102
C       -13.33279879582851    6.03760396360058   -5.50554143748166
H       -14.15606382813208    5.61667811684230   -6.06334040879644
C       -12.09143107966211    5.42477766482852   -5.57719619275164
C       -11.89897128626210    4.18252592477026   -6.38584585562118
H       -12.81088561560114    3.93021786891115   -6.91854415703839
H       -11.63193103620891    3.33614497297461   -5.72609247758324
H       -11.09665294767986    4.32109848138283   -7.10906192250130
C       -10.56914437172148    0.59339806058547   -2.91456200843677
H        -9.90413158876108   -0.13937848040694   -3.36265097442587
C       -11.73986373390783    0.89717342025515   -3.57815152125856
H       -11.90134359483432    0.43551260609958   -4.55224019590644
C       -13.00284892723358    1.35474219569214   -2.88613291726827
H       -13.03572415310914    0.92369230834295   -1.88529925028920
H       -13.86333089130215    0.96577682665925   -3.43266444521444
C       -13.11344144011161    2.88816176687883   -2.81744600695313
H       -13.62813148611343    3.25304248633112   -3.70933918171286
H       -13.72048785142699    3.18171117599373   -1.95518447407386
C       -11.77796085341766    3.58217621030690   -2.73845143718144
H       -11.81508113119025    4.61133990508723   -3.08446013243616
C       -10.74186110394007    3.23223502285671   -1.89744829969130
H        -9.99124471942073    3.99239591605927   -1.67719278567617
C       -10.82759187930923    2.11631513266603   -0.88218429070382
H       -11.86007759080318    2.02892872051139   -0.54393703402460
H       -10.22505354243269    2.38111383579428   -0.01174105206460
C       -10.32707729946373    0.77052487365644   -1.43548664538286
H        -9.25100673747041    0.69004256157925   -1.25729807864687
H       -10.80166740554655   -0.05447547879829   -0.89475945839344

