48
CSD_code = DAKSOZ | q = 0 | S = 0 | Stoichiometry = C21H18I2N5ORh | MND = 6
I        11.80845838604615    8.22474298300472    3.49839690931335
I        16.00184421642275    5.10376809793231    4.89549310404199
Rh       13.84772835275627    6.56662944272322    4.15549376902139
O        15.30709002897320    8.98595990943037    5.18098744024105
N        12.86935875249054    4.94401731700003    3.46681747152379
N        12.97070889248109    6.19453439801688    5.93462881339726
N        11.81051507684932    5.54654169253126    6.07449136622078
N        14.60789948580284    6.75352249562963    2.29494033298817
N        14.75584428435349    5.73460865770074    1.44308222164416
C        11.54392812869028    4.74252673696930    3.77085254045162
C        10.99117969218056    5.12275826795778    5.01062854644189
C         9.61869077234345    5.05386512464495    5.22474232999544
H         9.21137313502981    5.41635359362217    6.15665970113565
C         8.76001323991241    4.55827826997006    4.26053443616332
C         9.30891648309984    4.12307042719856    3.05655871695832
H         8.66220246658633    3.73072469019123    2.28585859993631
C        10.65761076613398    4.22092012343801    2.81467163144285
H        11.05890855487532    3.92148821547959    1.85723160321658
C         7.28450668645569    4.51499464299877    4.51212693719826
H         6.76400063553084    4.05371111493125    3.67751277810888
H         6.89659977194206    5.52393078561888    4.64656197256872
H         7.06403845861198    3.94902939576715    5.41644747504317
C        13.44928574637462    6.42687917941410    7.15569501679026
H        14.38702683605905    6.92728755021305    7.31126994776788
C        12.57761248801288    5.91164784311369    8.10568310935298
H        12.68830029436184    5.93622261009742    9.16914809890819
C        11.54798492695963    5.35460889877113    7.37962558126760
H        10.68293271727896    4.81934991860900    7.71144537672023
C        14.93647453027159    7.86915275983714    1.64542593036462
H        14.88696264518828    8.83399553643154    2.11507576275827
C        15.30017648455444    7.56147585538408    0.34136148504432
H        15.60731237682758    8.24196212289296   -0.42442371008876
C        15.16835775857297    6.19340354301117    0.24791190627050
H        15.31080349303914    5.54395723687822   -0.59048069093100
C        13.51357466741080    4.01883670218729    2.68007436731398
C        14.50829538420090    4.38373450453469    1.75249504499246
C        15.25064443061655    3.41052555271248    1.08770126250124
H        16.05371035066315    3.71871133762783    0.43519463816709
C        15.00024455831165    2.06491713455361    1.26741190454711
C        13.97464234465532    1.69921894670404    2.14037950779467
H        13.76123799803096    0.65242667371495    2.29824810126337
C        13.26086969385115    2.64444143377737    2.83254246035352
H        12.50224832243828    2.34130514319306    3.53966993647849
C        15.79847318168762    1.02048866644110    0.55135095053934
H        16.65834679669234    1.46000824855508    0.05294101486443
H        15.18242491651190    0.52092663227719   -0.19665774504622
H        16.14932161973444    0.26538570151709    1.25199275899035
C        14.75471917013979    8.06915388478493    4.79359928595763

