26
CSD_code = DAKTAK | q = 0 | S = 0 | Stoichiometry = C9H14Cl2Pd | MND = 6
Pd       -0.54418131616266    2.14871148073705    0.28658807166887
Cl        1.59170484099150    2.48461924027930   -0.24722008942923
Cl        0.17023131417515    1.01738975626137    2.06718156397261
C        -1.04439479352705    3.75822774067572   -1.21854014709655
C        -1.52979207527975    2.54963278983371   -1.62952211104211
C        -2.89438083227668    2.01421199572530   -1.24109630868533
C        -2.61077464693304    1.43383971259455    0.13086689870636
C        -2.57632097992351    2.17699270891827    1.27609764265003
C        -3.02778258451130    3.61273891949875    1.40907333434127
C        -1.97842367947506    4.66282102365420    1.00036570822727
C        -1.84069929553564    4.83781306352769   -0.52323328924048
C        -3.40402399843578    0.96326576585803   -2.22023465288554
H        -0.09875492876956    4.08817174502878   -1.64479157438085
H        -0.96726182354368    1.96720373739249   -2.36134603784381
H        -3.62127070340088    2.83188965670006   -1.16923495117169
H        -2.53608204571427    0.34700632652267    0.19515450761390
H        -2.47010575150458    1.64092412201475    2.21728794219841
H        -3.28515962648768    3.78673314012109    2.45538272086305
H        -3.93452632669232    3.76964184318964    0.81583547314578
H        -0.99417479789465    4.40308634296654    1.44033161507959
H        -2.28134185688628    5.62308679823248    1.42310746951924
H        -1.34190076231079    5.79131725648411   -0.70595744174216
H        -2.84085544462899    4.89843164961826   -0.96436979952852
H        -4.35889875928398    0.56432734045773   -1.88478557740267
H        -3.54010127055129    1.39972415499420   -3.20724448881978
H        -2.69492785543728    0.14089168871287   -2.30069647871741

