90
CSD_code = DAKVOA | q = 0 | S = 0 | Stoichiometry = C41H41NO2P2S2W | MND = 7
W         2.82055993583609    4.92745860472584    0.51639882037410
S         1.47762552001081    3.07546080595095   -0.46369021429087
S         0.37892625291159    5.12548368740080    1.26347283144123
P         3.69541428847494    6.43890916909717    2.18132316046888
P         3.06070390030133    3.38181253869440    2.39454802708440
O         5.50814309595365    4.13607644380147   -0.81424301797692
O         4.82473974447709    7.19450870138019   -1.03074680296095
N        -1.07477630173925    3.14194558837289    0.28583161444471
C         4.53632435249292    4.44114852980868   -0.27158943096552
C         3.70948194547368    6.85468404726529   -0.83496935944485
C         2.44411552254690    6.59653516318985   -0.66840828817373
C         1.21355391393003    7.34834060287432   -1.04785701442892
C         0.12420015984110    3.72837385271340    0.36371685506241
C        -1.23333272891291    1.81418303864348   -0.26714318510442
C        -1.57393101301811    1.82919859358189   -1.75295871904691
C        -2.25863249730336    3.81608959805508    0.77260261886495
C        -2.54877648690220    3.50407448416313    2.23712664143084
C         3.27373952754601    5.72705878574065    3.83415121297927
C         3.78189872177232    4.28927618252902    3.83708222256487
C         0.23322776669444    6.47475556681265   -1.78751300073615
C        -1.13446489578201    6.62493153230743   -1.60012046407758
C        -2.03210960495233    5.84939660149031   -2.31217730593374
C        -1.57162069749027    4.91623111314218   -3.22476730495623
C        -0.20904182588583    4.74803366491952   -3.40577422665980
C         0.68849132587841    5.51823768371984   -2.68843007721968
C         2.85069119792346    8.04565270529026    2.14284167530713
C         3.46949173056591    9.11958733383198    1.50420506969732
C         2.78861611265481   10.30930240880964    1.32817182595954
C         1.48303371056107   10.43779334600734    1.77540275498295
C         0.85439349193410    9.36563695632071    2.38662549357752
C         1.52893396858079    8.17039102252745    2.56160434281694
C         5.43085324595308    6.89945164168737    2.49508855869271
C         6.45039118120622    6.18372437686570    1.88381175661736
C         7.77254504786386    6.49709818328031    2.14871064156776
C         8.07795598486343    7.52330872872825    3.02639547878785
C         7.06143529619173    8.23483848874273    3.64614359313989
C         5.74053304601182    7.92460705457094    3.38604696891506
C         4.18664162626289    1.96251982455047    2.21379351053292
C         4.45644443026060    1.48472748947241    0.93654217107200
C         5.29251863353161    0.39638971427629    0.76226095784811
C         5.86468173923015   -0.21956100353186    1.86255998538617
C         5.58942497311132    0.24606885769325    3.13853902600077
C         4.74911271784651    1.32907065166772    3.31801946957605
C         1.62886556697922    2.50543266290463    3.12256243508482
C         1.21395416624115    1.33060864878864    2.49782884017306
C         0.09750912087730    0.65306326499730    2.94891048417554
C        -0.62140428836671    1.14219228434231    4.02730575787058
C        -0.22631838131370    2.31869697688414    4.64164629010576
C         0.88633481594836    3.00406116266850    4.18777765363254
H        -1.70617561900140    0.81121903335302   -2.10926659184110
H        -2.48934145067216    2.38730598400044   -1.93391113597375
H        -0.76724324281210    2.29646984670099   -2.31022991268351
H        -3.45813962665042    4.01084318802308    2.54805919119387
H        -2.67240179360574    2.43405591545344    2.38810466691268
H        -1.72490475246974    3.84597019659412    2.85752261384325
H        -0.29865445463291    1.26897201748388   -0.11520698929926
H        -2.02414553932208    1.31379374884138    0.29890266478889
H        -2.10716489270996    4.89220257884346    0.65155691906138
H        -3.09855358547123    3.50917901334158    0.14446326634502
H         1.46816314281354    8.21150452557256   -1.67751591383275
H         0.73875671346482    7.73216826751679   -0.13561420826163
H         3.72501169619682    6.31635968197696    4.63985913285429
H         2.18503013619876    5.74985054404932    3.93726001804282
H         3.55204487045205    3.78162903664999    4.77993498532121
H         4.86865135393694    4.28527060245422    3.68588597114880
H        -1.49626167444954    7.35618300987614   -0.88965448400224
H        -3.09452930442895    5.97780957478817   -2.15740547322598
H        -2.27161747518382    4.32042531409161   -3.79297038589400
H         0.15797014342798    4.01622605947781   -4.11156106793547
H         1.75454281159213    5.38176503104203   -2.83008850524956
H         4.48302055825210    9.01144461163819    1.14285157567806
H         3.27518493207100   11.13796734530822    0.83501577036545
H         0.95209183481176   11.36808319105560    1.63637656541901
H        -0.16968426162977    9.45628040087797    2.71952581236600
H         1.01644731372884    7.32939513265552    3.00710386700143
H         6.19270552902083    5.39152650087512    1.19760357729838
H         8.56331132574529    5.94306438211957    1.66544263566287
H         9.10905469923913    7.77351846006793    3.22876030612966
H         7.30157180398580    9.03514175316710    4.33133360476407
H         4.94398736893182    8.48264556769712    3.86135313645824
H         4.00421923047355    1.97155908780858    0.08113671754315
H         5.49923555467179    0.03179226418955   -0.23288069452219
H         6.52258703975682   -1.06553273779226    1.72819556027545
H         6.02986750934711   -0.23949875940398    3.99748899250790
H         4.52663425701465    1.67836496668497    4.31629943535859
H         1.78197519420672    0.95008482044420    1.65816251428451
H        -0.21079018839513   -0.26077952082932    2.46135403161726
H        -1.48995472576560    0.61024052752438    4.38734483139475
H        -0.79098837367810    2.70753835797354    5.47706422656093
H         1.17258688447888    3.92719311590461    4.67068243822625

