72
CSD_code = DAKXIZ | q = 0 | S = 0 | Stoichiometry = C30H37AgN2O2 | MND = 2
Ag        5.19160299096673    3.44919470114603    5.98196208786499
C         4.88492453881520    1.80127716750952    4.53961215312976
N         3.94292825233667    1.60850286513669    3.59157224025523
C         4.19076074505270    0.44715822957337    2.90823785761505
H         3.58366044274265    0.08764222534654    2.10450143177367
C         5.30507243306715   -0.09887894043575    3.44374002932552
H         5.80048514915618   -1.00672680348092    3.17576386824074
N         5.71985863479015    0.73848612674158    4.44086042598665
C         2.81379797239916    2.47546140017567    3.25387891063539
C         2.68823499550755    3.66283485939506    4.20764587740592
H         3.60390322484121    4.26666060961187    4.17483502854821
H         2.54885877967278    3.30468636472902    5.23205085350095
C         1.51452476947405    1.65923797377531    3.32141482264122
H         1.37578717343697    1.28864044324769    4.33969359948935
H         1.56862145296281    0.79665624763477    2.65519793951758
C         3.01508273687722    3.00992252464683    1.82845127488033
H         3.11606204227265    2.18106714303697    1.12462511910413
H         3.93763080354639    3.59443807313616    1.79264938035579
C         1.50028882130427    4.53741591250504    3.80675495145021
H         1.43566432885621    5.37779725528403    4.50407647771811
C         0.33061281174909    2.53547259482616    2.91221383679463
H        -0.58553542960377    1.93615082562054    2.95237199951032
C         1.82277112355015    3.87913883456980    1.42956464282505
H         1.97484152610762    4.24550351837080    0.40847030003531
C         0.21339757666190    3.71809031243219    3.87005059247751
H         0.04908595247158    3.35968083688341    4.88808141359094
H        -0.63954844401433    4.33978932490880    3.59149375592615
C         0.54213133430581    3.04691607434874    1.48741527124928
H        -0.30977625247472    3.65824653197042    1.18413891469026
H         0.61166971006110    2.20521537846181    0.79411912100468
C         1.70755343326473    5.06246104262039    2.38776099645082
H         2.61439380129865    5.66891109889220    2.34361321249154
H         0.86682298342549    5.69521684393804    2.09713911581542
C         6.91788607932675    0.55971360222855    5.26671257837692
C         7.61404597009495   -0.76798762971489    4.94794460682800
H         7.91500358493647   -0.79192175083713    3.89787348644900
H         6.93512305108376   -1.60309872496806    5.13804993568054
C         7.89768093499029    1.70545967081502    4.98433375865902
H         7.41507109820642    2.66495181619040    5.21226736372826
H         8.16985337833609    1.69839826696142    3.92569058026909
C         6.52828784766723    0.56076641284536    6.74977121242065
H         5.83402509466127   -0.26061708932761    6.94555789187823
H         6.02093565784831    1.50865261230764    6.99464519477423
C         8.86179125880449   -0.92044766481967    5.82209073626787
H         9.34308008793082   -1.87547227429061    5.58187866129267
C         9.13976808192528    1.55139821050507    5.85794373782045
H         9.82208919161840    2.38132125207653    5.65222145894066
C         7.77894444229189    0.42282490966364    7.61416244348784
H         7.48579129145872    0.44048019123580    8.66862155180207
C         9.83003571223773    0.22612786042547    5.54007373549219
H        10.14022595293882    0.20582389495311    4.49250554031568
H        10.72451720324739    0.11398814853804    6.15537701088555
C         8.72331935286187    1.58819584206578    7.32651394448092
H         8.22088770319677    2.53509902197365    7.53539919015871
H         9.60453632182092    1.51947411822885    7.96695439850740
C         8.46932458207888   -0.90304869165729    7.29728417815599
H         9.35974426197587   -1.01811441612895    7.91793533991696
H         7.79846798793090   -1.73719265794747    7.51699334739320
O         4.77105291520771    5.08380888263475    7.51848042623315
C         5.99186945483375    5.27079707162306    7.73733223075224
O         6.89496700409658    4.62553544400514    7.15891319932696
C         6.38609827851050    6.31568708831374    8.73608449045632
C         7.72884679524382    6.53240153461217    9.02116908942792
H         8.46883783359454    5.93170824009596    8.51314832755394
C         8.09557500384276    7.50149007245139    9.93601023624211
H         9.14046719835959    7.67000723461059   10.15673195052343
C         7.12381327598901    8.25915589886766   10.56988681413828
H         7.41144342977917    9.01806668714115   11.28423881462628
C         5.78377473656110    8.04565072170360   10.28872311938945
H         5.02766776570004    8.63839898853242   10.78453551383887
C         5.41448532650165    7.07646578515855    9.37474325722783
H         4.37639443741224    6.89328382237613    9.13994314398845

