82
CSD_code = DAKYUM | q = 0 | S = 0 | Stoichiometry = C34H43AgN2O2 | MND = 2
Ag        9.28878648212505   12.43573367255628    7.71504424804425
C         7.42694754614662   12.49853972287778    6.69307997521486
N         7.25428667068913   12.43919583716005    5.37762366904513
C         5.84977287519996   12.48296127796086    4.96642670885609
H         5.58870488925858   11.57614367195683    4.41221914509195
H         5.67197476809578   13.34390432497353    4.31479762806491
C         5.12170670275112   12.59086724229734    6.31018700775958
H         4.54449736869594   13.51545828200909    6.40893277872343
H         4.45044846410307   11.74790115223900    6.50022532296787
N         6.23132449259566   12.58226320923404    7.26516595838063
C         8.31098952165264   12.34569108694933    4.43422638104844
C         8.87275661257965   13.51897286276049    3.92276393932373
C         9.88099384605956   13.40610802079167    2.97527828306104
H        10.33643698665945   14.29551077843239    2.56879466715698
C        10.32072274455624   12.16573004960936    2.55514801597765
H        11.10527989392169   12.09517759018011    1.81641817003908
C         9.77949090712316   11.01557856966119    3.09597255662856
H        10.15697726844444   10.05464659615355    2.78329544540054
C         8.76807699126681   11.08364685294659    4.04458642210020
C         8.45595001748110   14.87436393412300    4.44148223503900
H         7.56061813486047   14.75957054081336    5.05917850789384
C         9.56936776125272   15.42427010981410    5.33730650651562
H         9.77750587156181   14.72709238138300    6.15566937500253
H         9.27432031645865   16.38066953083193    5.76232330800197
H        10.48503533027193   15.56441206140778    4.76864729061971
C         8.12601841124666   15.85137708622310    3.31156540174493
H         7.38717424622871   15.42359386295806    2.63627891636647
H         9.01240061343257   16.10061469069666    2.73503722380886
H         7.72360170868283   16.77375433368384    3.72478517598668
C         8.23467876930296    9.82647361466028    4.68862931447337
H         7.35418108570104   10.07857142983442    5.28662819426790
C         7.81759670979330    8.77988643552223    3.65359995870102
H         7.11974100705380    9.20583239362271    2.93490369810174
H         7.33457297755560    7.94049362640927    4.14906214059943
H         8.67788968208188    8.39900494695545    3.11041445204402
C         9.29552271665726    9.26618309007411    5.63998755904421
H         9.56392729677332   10.01339059801238    6.39446288189425
H        10.19568087494975    8.99491449160522    5.09440465236028
H         8.91752596692153    8.38228175427927    6.14806901441426
C         6.01894002079796   12.67042253355754    8.66605214552905
C         5.84640562868384   11.49629684542203    9.40449759523653
C         5.60680896520611   11.60681801102501   10.76743696541637
H         5.47749375563412   10.71653304377117   11.36269182712608
C         5.54596605518945   12.84516359507101   11.37674664301007
H         5.35736691733915   12.91375156134412   12.43786475707039
C         5.75208341167032   13.99474850524403   10.63898534690560
H         5.73505388028483   14.95280616468946   11.13461286905973
C         5.99429701929988   13.92897928161791    9.27360016536590
C         5.99327354133979   10.13950450112310    8.75859728651700
H         6.02779240999496   10.26397443070216    7.67245461037253
C         4.82271199267255    9.21178767828596    9.08969646477953
H         3.87398327653742    9.68679721596972    8.84625565161743
H         4.81366347625795    8.95051982457411   10.14415465597930
H         4.90570403494584    8.29111935495381    8.51620563881539
C         7.32464099632359    9.52293672015201    9.19648261841105
H         8.15633814433306   10.18355858101050    8.93098367317093
H         7.47486757021105    8.56342198727845    8.70747471946959
H         7.34157313577900    9.37070756008476   10.27259730587808
C         6.29802567410440   15.18202839598974    8.48774406385819
H         6.32229368348025   14.93704645838828    7.42200942535705
C         7.68948349557483   15.68776525838319    8.87803543986717
H         8.43997003951537   14.91067698752181    8.69751540904165
H         7.72052284803037   15.95276153181841    9.93171553260320
H         7.95063297176562   16.56514189659721    8.29121365933259
C         5.23938133695890   16.26622577987818    8.69756892354416
H         4.24506422072507   15.87992744624382    8.48062706108707
H         5.43491513736976   17.10815951769792    8.03698066516401
H         5.24801609117063   16.63243850190551    9.72031556921752
O        11.16732550101295   13.38238578428302    8.63033025078915
C        11.57873826372633   12.25338018212903    8.98583216986342
O        10.94521867440833   11.19678365691541    8.76410962392480
C        12.88775705620447   12.16377400322521    9.70767503461176
C        13.36398742310438   10.92967042883038   10.13328432674999
H        12.77033857036426   10.05021128640807    9.93223577922941
C        14.57282577641851   10.84551214393634   10.79835512555139
H        14.94305235492082    9.88530347481700   11.12979077256682
C        15.31154592931728   11.99259581638167   11.04104616676112
H        16.25725702432770   11.92585331852982   11.56082686933261
C        14.83977378886448   13.22501220860981   10.61809902014803
H        15.41825970782885   14.11822682953026   10.80899094650595
C        13.63083476294795   13.31183279230858    9.95319166590360
H        13.24263090515833   14.26105719015763    9.61469342950361

