36
CSD_code = DALCIE | q = 1 | S = 0 | Stoichiometry = C13H17MoO2S3(1+) | MND = 9
Mo        1.28615729215047    7.08878829976671    4.44901434689915
S        -0.53653576463702    5.57325344450334    3.47585446378976
S         1.36100979071153    7.76072585094466    1.98214685724249
S         1.80852789657165    4.39893097429269    0.67024995400090
O         4.33281951434754    6.86758758763148    4.08782593392571
O         2.45319618377691    4.45964337781757    5.54234672155322
C         3.19565184165137    6.96116177162970    4.17317278001268
C         1.97833606183800    5.40914462316728    5.11588474978972
C        -1.16829893256671    6.60211401949112    2.10074816773879
C        -0.10238818330073    7.03228982718768    1.12694726617976
C         2.70449453083813    7.07128502113506    0.95444364565709
C         3.08293662642865    5.62067579928651    1.17094921910096
C         1.27887150650523    3.67970023586901    2.26990596078322
C        -0.15583206151744    3.97225567338128    2.66060810915100
C         1.46528644622734    8.38548318416401    6.31466178730513
C         1.33104871780003    9.24088225601352    5.18737666546526
C         0.04129770546944    9.03555713080326    4.64010846085801
C        -0.61462265584346    8.06276913049990    5.41521897209205
C         0.26210013206383    7.64438398384512    6.44142356032955
H        -1.94286596835709    6.02334280128966    1.59527760992305
H        -1.63601011391039    7.45829415186835    2.59269622120946
H        -0.48426891438562    7.80954953515990    0.46338024385630
H         0.26113888619616    6.18662006617496    0.54108566995670
H         2.39837209415541    7.24954344947010   -0.07691158803234
H         3.56402684579797    7.70440506327986    1.18352249161258
H         3.34220105257395    5.41853676501547    2.20952593097415
H         3.95276361242397    5.40779738764191    0.54694279740814
H         1.37375780790243    2.60038749001434    2.13989906618989
H         1.98181116194445    3.99908904528266    3.03868232554211
H        -0.47339964323739    3.23967168273725    3.40531219291151
H        -0.82014006010552    3.90953540549307    1.79909186078108
H         2.26242057467679    8.42372636859806    7.04582859865948
H         2.00739204106604   10.04354839700732    4.92403417934293
H        -0.41321599101697    9.64687755350639    3.87037859934934
H        -1.65568941207987    7.77611026973987    5.33184468798912
H        -0.00485062215785    7.01573237628950    7.28042149045109

