49
CSD_code = DALFAZ | q = 1 | S = 0 | Stoichiometry = C21H22Cl2N3Os(1+) | MND = 9
Os        3.60748230905340    2.36434839184717    3.79206681385470
N         4.56075173929621    0.63383157055814    3.70677407079726
C         5.73676466004589    0.37488239974829    3.14184277718838
H         6.23519777985997    1.19081663788061    2.63820898828741
Cl        7.83783339518966   -1.15076233527165    2.46092878373245
C         6.32133841315486   -0.88074764005710    3.20801393600213
C         5.66529863514629   -1.91033171592051    3.89720879201221
H         6.11570460298973   -2.88744539504095    3.96082239022015
C         4.45659904178951   -1.64590042706533    4.49316419742863
H         3.91331824703423   -2.39218560445998    5.04784452336117
C         3.91312212589120   -0.35764696769243    4.39547421461682
N         2.74180477527818   -0.00404623987080    4.95596913063656
N         2.45163336015370    1.23896048373152    4.79108777423621
C         1.25183781248042    1.69038254791264    5.33483942591657
C         0.16279068657194    0.82842497677779    5.49388292939554
H         0.27011717814592   -0.20255340722096    5.19635316231734
C        -1.01851786243509    1.31265755346574    6.01934447540542
H        -1.86125107397645    0.65009089308304    6.13823165800815
C        -1.12330646330477    2.64393413142041    6.39722816007908
H        -2.04813031030068    3.01573101057904    6.80937627501120
C        -0.03515559463168    3.49535115400065    6.26215066549015
H        -0.11077383973486    4.52222601336547    6.58427618955696
C         1.15091532601231    3.02738862807324    5.73209667934200
H         2.02262936151831    3.66776958685841    5.67366084037293
Cl        4.87625537526923    3.04019956611703    5.50921073719806
C         4.35480645245149    3.41748638396334    1.53064939662843
H         5.21974267877578    3.13625178497580    0.94678571670912
C         3.20417415689580    2.60407070041177    1.48057353973434
H         3.19128978711362    1.74348710552503    0.81981127317809
C         2.00143760508668    3.01749042656439    2.09967803708523
C         2.00508476583372    4.25259320192734    2.78791313851420
H         1.07674216480931    4.63080755271340    3.19342096451616
C         3.17233324065680    4.99146776854161    2.91628318431906
H         3.15158659060854    5.93513473286595    3.44474335984862
C         4.37335554711528    4.59161687462169    2.28307387483892
C         5.59128898827134    5.47593928287679    2.34223711214239
H         5.44609603482737    6.20161428907630    3.14879538147538
C         6.86349600280971    4.68070608974137    2.64105340862042
H         6.73013935589799    4.06760696441204    3.53110419151091
H         7.68639137115119    5.36639325741793    2.82165307977750
H         7.14068398334248    4.04270965645334    1.80523358817459
C         5.72070675101597    6.24288035878612    1.02104717043870
H         4.82915562028384    6.83542332239739    0.82898743945774
H         5.86670718164351    5.55853194523886    0.18854449982092
H         6.57465886930595    6.91235980644107    1.06923820583004
C         0.71834749923758    2.27697545400953    1.87069221100271
H         0.89668947317232    1.22071364651702    1.68054568152472
H         0.21591219608347    2.69458462319862    0.99719395677709
H         0.04561400311421    2.37727895850445    2.71998399760783

