49
CSD_code = DALGEE | q = 1 | S = 0 | Stoichiometry = C21H22BrClN3Os(1+) | MND = 9
Os        4.73971121539786    8.73145881224443   -0.04985752314422
Cl        5.53225577295597    9.93142965472174   -1.76704023629327
N         5.99183636330439    9.61212340649500    1.19953780477545
C         5.87285354283875   10.80779475784457    1.76885434181024
H         4.97408825517141   11.37082424050148    1.55869247508112
Br        6.61515094243506   13.03108531445062    3.36179732806163
C         6.86329944656372   11.32880923619945    2.58362349469143
C         8.03244112929490   10.59437491720523    2.81621134757929
H         8.80958891992283   10.99891998278290    3.44479656983030
C         8.16774972819565    9.36442235950719    2.21989637999330
H         9.04868235728805    8.75850648470369    2.34797446790992
C         7.13581477355506    8.88336542609230    1.40181922377922
N         7.18580880178924    7.69889602272156    0.76708129518020
N         6.15758383355586    7.47531029647423    0.02405237308670
C         6.12425326947892    6.27105766668114   -0.67327923914615
C         6.77418021121187    5.13445060108227   -0.18306228013547
H         7.31411115661963    5.20664508353542    0.74767556753037
C         6.70680733964796    3.95200432527263   -0.89256747967005
H         7.20332553341042    3.07283438813647   -0.51330627828811
C         6.00809979017795    3.89246463042101   -2.09028108284345
H         5.96190949868007    2.96657195746747   -2.64162812056704
C         5.38209673040229    5.02632702045140   -2.59025391109617
H         4.86492648976406    4.98416421010245   -3.53614722893464
C         5.43402255145074    6.21427810956957   -1.88853583243823
H         4.99710807192880    7.11763348545969   -2.29644957649322
C         2.47386732830464    9.64251464053176    0.84607055397718
H         2.33184706559854   10.52753060326821    1.45024059397659
C         2.94039228974897    8.46309095835176    1.46165539166079
H         3.10037476853140    8.45225907327341    2.53485870771351
C         2.98724384678552    7.24490644241469    0.74480991695811
C         2.58052482309060    7.26084470902557   -0.60890840332131
H         2.52607120992826    6.32735367448261   -1.15202264986066
C         2.22070990627840    8.44878538801297   -1.22948274667371
H         1.90775296188183    8.43654909721973   -2.26495210709045
C         2.15232552265242    9.66652233231469   -0.51134503693645
C         1.64174157384423   10.91510005187622   -1.18148202912785
H         1.65383056817148   10.75027793676910   -2.26361699929061
C         2.51993690816504   12.12982328468036   -0.87475434059530
H         3.56312809405453   11.91359912662411   -1.10015211294525
H         2.43379915344807   12.43196236856520    0.16619312307002
H         2.20740854699583   12.96869813670753   -1.48992474006360
C         0.19220901538060   11.16230794559030   -0.74713673031914
H        -0.19764010000819   12.03802566446296   -1.25791843288789
H         0.13276716033405   11.33496933051844    0.32499319771292
H        -0.43675188250189   10.31048546505487   -0.99562468785437
C         3.27217913269768    5.94801149417592    1.43995760541487
H         3.91237094136419    6.09304942602234    2.30761849682157
H         3.74020394942307    5.23194727557407    0.76751760012470
H         2.33280149079235    5.51463318436267    1.78590194927814

