70
CSD_code = DALHAB | q = 1 | S = 0 | Stoichiometry = C32H26F4N2O3P2Re(1+) | MND = 6
Re        8.53861198200339    3.86630005611359    7.49691132291476
P         6.35853331389940    3.83454954863504    8.60852362403107
P         8.59649485829605    1.58504122697455    8.43955096837366
F         5.56711809407624    5.70384868621341    6.71705411844962
F         3.78288985618004    4.12972413052192   10.09203799970045
F        11.33432452275058    1.81987794981772    8.25591575182920
F         8.61174587179549   -1.30199808476014    9.27668587512255
O         8.36253018404783    6.82983472520150    6.61498300727666
O         9.95263645602792    4.66408735032347   10.14472335880774
O        11.21577156323805    3.65145940179371    5.94973681003940
N         7.13314956365784    3.97890238910042    4.69361603170896
H         7.39303658668619    4.94694862888625    4.60002273208114
N         6.90031754316894    2.02144358583885    5.52906525808879
H         7.08606420903204    1.21221788619607    6.09936406913988
C         7.45398876698749    3.21637745648252    5.72910547446307
C         6.32529792849163    3.31156463722182    3.68270295412931
H         6.83714224508964    3.32311012257769    2.71737008138151
H         5.35974448238859    3.81266299878670    3.57320668881570
C         6.18677009014978    1.89819745979964    4.26593432836638
H         5.14501951710065    1.61850482964628    4.44533539182020
H         6.65217644214767    1.13576171143374    3.63549194335848
C         8.40899175329863    5.73240060539963    6.92464837586563
C         9.43674258121840    4.39745510603940    9.16212626568398
C        10.23925625525010    3.71689751554690    6.53284912158804
C         4.91261135000122    3.61622303060786    7.52552210149910
C         4.69419653959916    4.67181745102096    6.64659339861863
C         3.66329046830245    4.68731893726420    5.73267119278403
H         3.52570003409069    5.53883005727907    5.08515054634852
C         2.81485999873170    3.59105300600314    5.69030566719233
H         1.99488983118100    3.57787355129492    4.98962990285038
C         3.01276054125358    2.52045552351642    6.54734542836978
H         2.34328754187072    1.67486837108441    6.51165551923142
C         4.05338228933206    2.52658659511084    7.46172612736689
H         4.17284146946996    1.69101552487717    8.13372372638859
C         5.82898531859854    5.21478989059808    9.66117114327569
C         4.58137001817806    5.20452140540214   10.27798197820784
C         4.14479722171551    6.24642298912136   11.06879971999042
H         3.16967843230209    6.19520141121538   11.52661706151648
C         4.97876881688710    7.33845651604271   11.25049428441347
H         4.64937431317216    8.16190111531374   11.86429716612263
C         6.22537530297556    7.37546562903728   10.64665894907407
H         6.86960759277243    8.22874400955451   10.78843245080040
C         6.64752169585505    6.32260258173679    9.85465491546655
H         7.61552092672737    6.35253791501026    9.37253796735773
C         6.30430310772784    2.39610167469498    9.76310264264447
H         6.89287135734127    2.70397735237396   10.63637890150671
H         5.28040922306326    2.20291396589620   10.09405244521116
C         6.92775973206487    1.15989031075018    9.11639065914814
H         6.31235452027010    0.81683794421559    8.27683103269607
H         7.00407183713013    0.33881745663127    9.83317340361039
C         9.70711703426096    1.39965212867680    9.86716223758577
C        11.05355211304639    1.57141232669683    9.55695318516798
C        12.05560670773669    1.50063125577000   10.49753937045887
H        13.08385205034932    1.63991025730353   10.20537366509435
C        11.69295176151111    1.25194172714299   11.81276166647945
H        12.45568505278652    1.19204033707992   12.57278630499674
C        10.36082462410767    1.08267182261690   12.15309746212064
H        10.08997183819901    0.89000949493940   13.17955131616723
C         9.36614641638808    1.15779959575565   11.19209302798516
H         8.33701340084072    1.01706796744805   11.48437057404787
C         9.06980064191499    0.12409135966181    7.45962498180192
C         9.05075846778805   -1.15391547801327    8.00980875360340
C         9.46248949759222   -2.26447116872811    7.30164013219449
H         9.42986353091002   -3.23504410009060    7.77043037000256
C         9.92411642222051   -2.09694071785820    6.00602753514694
H        10.25682547625970   -2.95564106321870    5.44480913968943
C         9.97213568695064   -0.83311368929757    5.43930707549863
H        10.34951799062537   -0.70449035046666    4.43699401412038
C         9.55254043045995    0.26943090431569    6.16154271124359
H         9.61628670845520    1.26166325082689    5.73446659187380

