75
CSD_code = DALHOQ | q = 0 | S = 0 | Stoichiometry = C27H28BN6O12Rh | MND = 7
B         7.62771067810777    2.82345821064358    3.91904111703289
H         8.78785604787156    2.98580699419881    4.06044989860452
C         6.04766326156287   -0.39327257134707    3.36462154275675
H         5.16061188823924   -0.95891723285998    3.16093931218392
C         7.34298056911564   -0.85711997860977    3.58181006641177
H         7.68023050364295   -1.87271905890268    3.57796957177044
C         8.08986538508112    0.28155369592040    3.79791548269476
H         9.13401317735967    0.39880860608392    4.00473064379604
C         5.68286761803232    4.14014503915021    1.15967776070599
H         4.76091062284017    4.16538496968556    0.61305757942577
C         6.88820651305572    4.76564255733986    0.84993494455594
H         7.09253465517165    5.40283328713752    0.01499141231250
C         7.75448612375490    4.37372003230112    1.84879085171772
H         8.78642806597540    4.61182268264465    2.00743525018562
C         5.04678917861135    3.63408578404708    6.29500525839944
H         4.00302829548452    3.61510928177708    6.54061465960611
C         6.11795786361906    4.09737149575859    7.05826653042576
H         6.08171018282296    4.53413082593218    8.03459633759764
C         7.23087772959190    3.86732688068600    6.27629965103544
H         8.26691518772527    4.06521921334826    6.46231132184806
C         2.71996960958169    1.28473145986408    2.76726640346977
C         2.65730841734920    2.58292885291464    2.24719302542504
C         2.78851088272759    3.63541960582714    3.23015259250120
C         2.08970039212303    3.42503103735309    4.50722327685544
C         2.14814616092469    2.16732608151015    5.01595360075586
C         2.83368307954922    1.16326887078294    4.21130749614019
C         2.58528292223895    0.10174389223050    1.84990304381615
C         3.78066568844613   -1.27099774137432    0.38905466615656
H         3.41827316343816   -2.17935818669495    0.87436835551750
H         4.81481143136511   -1.38449385453452    0.07505661282339
H         3.14204078455789   -1.04434525047713   -0.46673441182819
C         2.36431014077982    2.85271905076542    0.80042471869998
C         0.66486541951266    3.54949850203511   -0.63611293102169
H         1.13000530509965    4.48809386113070   -0.94308795912994
H        -0.41535119180508    3.65472851676568   -0.58384124897165
H         0.94404793556448    2.76202777948008   -1.33881815173075
C         2.99246650384829    5.00987681706225    2.71450117207064
C         3.72272552939448    7.16328001030273    3.24384073802399
H         4.45896093730362    7.17154391063503    2.43667227089071
H         4.10631610276948    7.68566058284525    4.11648268383807
H         2.80396705997529    7.63295570511808    2.88624017858887
C         1.24945990499315    4.46014634520305    5.13593507475213
C        -0.00760068843137    6.39688848558972    4.76599381449253
H        -0.86687722167379    5.94735734029479    5.26789533168443
H        -0.32838190440188    6.98470929105826    3.90967935776046
H         0.53145929363070    7.02106757367463    5.48224195567461
C         1.43568786788451    1.80110159921267    6.28635956370411
C         1.54743943200411    1.91828937950312    8.61237500573753
H         0.79867722410135    2.69483647233958    8.77957261675117
H         2.33916349573368    1.98460985650279    9.35444487538791
H         1.06369928284930    0.94019366809224    8.64322699243831
C         2.95007944996856   -0.22088521138100    4.71149875176804
C         2.93886879830214   -1.62207459498303    6.58293833119754
H         2.04442407254664   -2.18448384811191    6.30733078346003
H         2.99732509983394   -1.50351514287263    7.66184896050508
H         3.81856300427375   -2.14609208852768    6.20323304390722
N         6.03233044252782    0.93146714404592    3.44717615392964
N         7.27827799060009    1.34212968994625    3.71187899529050
N         5.83029874199449    3.43395008856611    2.27492957593764
N         7.09312009857589    3.57085603075455    2.69052116646787
N         5.49982843509343    3.16277773063393    5.14199625655084
N         6.82617844301583    3.30461870820985    5.13041822474584
O         1.54253243650485   -0.42270211870558    1.57142188224164
O         3.76416371655231   -0.19040105877169    1.31276912303098
O         3.13407259745760    2.70076805029842   -0.11128025953113
O         1.09454560047310    3.21545631470837    0.67726009550802
O         2.82835385571282    5.34388119560465    1.56345852294594
O         3.46514992512273    5.83225230050010    3.65946306962097
O         0.91469422909401    4.45908134188863    6.29637302389188
O         0.84686610182205    5.38582024042548    4.25478796384560
O         0.34887687044046    1.29103105200845    6.31732334954337
O         2.16370821933233    2.12368787281507    7.34879594105431
O         3.11473758389907   -1.18397252192155    3.99221780703752
O         2.87682600254173   -0.31047083260010    6.04336549269179
Rh        4.49920177521655    2.32518942752336    3.33784383002288

