39
CSD_code = DALJOQ | q = 0 | S = 0 | Stoichiometry = C12H19N3O2S2Zn | MND = 5
Zn       10.44404017922368    0.02938231302970    1.72358956869641
S        12.10082510391725   -1.05958218735276    3.01464904822430
S         9.59156266851431   -0.25543687558731   -0.47693718726428
N        12.06818674109836    1.30888093312197    1.21584582946979
N         9.76501155365144    1.85191248221465    2.77230307311431
H        10.52048854243642    2.06626556817709    3.42320778039357
N         8.59633232891098   -0.89174147258331    2.25205360318408
O        14.61074755664880   -0.64346462946898    2.57891753169263
O         7.98125412829342   -2.23295385533475   -0.91957637199598
C        13.47920299285164   -0.30065150772643    2.31485391604758
C        13.24908038486093    0.88029466904372    1.38793113835307
C        11.73530291773145    2.48371943149170    0.45742889580850
H        12.61606942845286    2.97210662374866    0.02857177416821
H        11.07277321960357    2.16777265993511   -0.35327908502067
C        10.99239559335441    3.48061578214425    1.35585543813984
H        10.83320175227391    4.39438533437095    0.78140858983341
H        11.62839715751814    3.72779012949883    2.21084720825346
C         9.63669125358230    2.99317962154511    1.86070466839747
H         9.13775207394350    3.83054395051900    2.37201997469979
H         9.01557809756878    2.68535900255869    1.01544434495672
C         8.56310711534814    1.62574172848820    3.57832598909036
H         7.70788981063554    1.56957445114702    2.89983167115395
H         8.39760639427126    2.47012621345664    4.26278559080415
C         8.68902487300404    0.31896819468534    4.36642624515232
H         8.16445059087614    0.40369144492960    5.31860952067071
H         9.74325334551282    0.12846959572015    4.57474420582680
C         8.10607303139107   -0.87027258555317    3.60382413346618
H         8.38276037634389   -1.80222837815883    4.11037896776648
H         7.01027278384369   -0.80325788257083    3.59933004595646
C         8.03862635096484   -1.60438236786360    1.35846825991922
C         8.47572849488357   -1.50499198438677   -0.08740940009319
C        14.49488469977880    1.45992161030993    0.80357423086141
H        14.61217315819720    2.50273681223489    1.09669899950393
H        14.45184252939977    1.40786126855565   -0.28359516218261
H        15.35079774694363    0.89054210644595    1.15814945908013
C         6.89511704142352   -2.52734125883754    1.60266207590571
H         7.14050585834628   -3.21991229812067    2.40715991944033
H         6.67291612641517   -3.07796083527903    0.69162179170993
H         6.01147599798336   -1.96196380854957    1.90247371681407

