80
CSD_code = DALLEK | q = 0 | S = 0 | Stoichiometry = C34H41AgN2O2 | MND = 2
Ag       16.53519204945615    8.01592038671825    6.12523444355141
C        15.93670657074166    7.63076316678021    8.13058771412972
N        14.85737816235936    8.02025704186272    8.83674183755592
C        14.89879520015044    7.51849073538645   10.11157794997799
H        14.12900039988120    7.71633275703650   10.82874909160602
C        16.03916884119050    6.79363439401677   10.20416300962432
H        16.45504908687459    6.23732475697033   11.01879645441246
N        16.65513891742021    6.87663101802432    8.98410531696226
C        13.81880846852981    8.83951610092426    8.31597817703411
C        13.92700095636492   10.22690855507900    8.43303982372776
C        12.89684263848268   11.00724313572218    7.92612454249059
H        12.95656141196892   12.08183171862312    7.99286162116457
C        11.79882781248384   10.42441755036665    7.32354402708446
H        11.00691550065855   11.04614209435067    6.93343159303369
C        11.71929762021180    9.05094911445755    7.19871524244250
H        10.86821959887903    8.61225087722622    6.70272734681630
C        12.72688171339516    8.23294427338206    7.69143834641726
C        15.16116171572651   10.86577185509085    9.02370813510185
H        15.73580967470075   10.10438194456159    9.56053442822601
C        16.03146091396185   11.40000287916301    7.88232877472052
H        16.28994662409033   10.58995067023825    7.19001051738499
H        16.94949214007703   11.82951806164111    8.27601872065870
H        15.49894864737816   12.16609734307712    7.32443012046950
C        14.82418019400143   11.97717285810202   10.01906896941440
H        14.12823503121637   11.61743407827229   10.77412733390000
H        14.37996285702988   12.83394899341127    9.52032723951747
H        15.73081616403557   12.31248165850743   10.51769374017928
C        12.67587693180568    6.73764073902150    7.48756716164620
H        13.42975556179423    6.26381100784875    8.12411775285381
C        11.31682264549837    6.14365595050438    7.86120127175621
H        11.03222278296951    6.44132790970969    8.86831948969102
H        11.36666572316321    5.05775398632108    7.82381418171353
H        10.54073193110124    6.46724034608918    7.17339574841800
C        13.02516487602342    6.42896494158528    6.02875314430286
H        14.01099703245612    6.83822096990470    5.77927305883932
H        12.29366886972212    6.87478624162584    5.35960031171684
H        13.04039196719450    5.35447284268208    5.86296085407860
C        17.89025076713955    6.25761230352416    8.64243191283963
C        17.87603458456543    4.97006500873530    8.10173381017647
C        19.09216005647484    4.38326113504072    7.78135082997794
H        19.11204795170769    3.39574352179464    7.34841386475835
C        20.27954520160956    5.05621346638204    7.99201633912940
H        21.21641083756281    4.58744495913753    7.73061947900984
C        20.27264441425846    6.33510999202988    8.51285792660152
H        21.20619034222926    6.85838544651300    8.64575948349154
C        19.07959203400718    6.96003395140863    8.84773356361239
C        16.57722227430139    4.26115791213197    7.80002814747637
H        15.75441021049639    4.79626848551448    8.28550187185049
C        16.56367408003477    2.82342592523402    8.32224827115536
H        16.80309181280412    2.79912415700282    9.38349534246352
H        17.28223375370409    2.20413140622623    7.79309796087366
H        15.57653933928071    2.38851037977402    8.18136549664423
C        16.34130693282820    4.29951276271806    6.28781957459568
H        16.36806137275825    5.33562448241716    5.92909269945547
H        15.37550924949651    3.86426480784744    6.04113147540964
H        17.11827631071489    3.74624623533420    5.76711817853108
C        19.07240206935219    8.38500385710190    9.34720857909272
H        18.07057294040933    8.63287629097526    9.71310701910749
C        19.39158397178979    9.31461140953368    8.17351854940519
H        18.69365086089482    9.13144490230888    7.34846983387316
H        20.39735857977720    9.13173368967601    7.80509519141436
H        19.31400129329933   10.35554656701757    8.47941049013432
C        20.05142487465437    8.60035966298988   10.50267062781258
H        19.85590234827064    7.89402806219684   11.30710652306351
H        19.94315803682520    9.60899697264026   10.89552325106540
H        21.08015177537974    8.47488988628326   10.17739403170897
O        16.76328933895874    8.60622391465061    4.00987052162495
C        17.88797846365675    8.05926743572590    3.86484595730952
O        18.47484394533062    7.44899874916634    4.77924538429490
C        18.54224871092309    8.15498113573677    2.51930868827948
C        19.78619333989791    7.57213715519755    2.31083617842006
H        20.25812439396061    7.05763691833757    3.13500156406393
C        20.39247434347736    7.65738948472067    1.07152628661910
H        21.36058398540030    7.20401201131513    0.90934234812755
C        19.75951560496820    8.32462314974714    0.03486376611210
H        20.23433928733089    8.39105775185579   -0.93427697975852
C        18.51888513850590    8.90711780899599    0.23896959730406
H        18.02721886821105    9.42700987303742   -0.57159458964806
C        17.91078230245460    8.82326370123402    1.47770173181467
H        16.94421676721780    9.26936031651621    1.65977172809722

