58
CSD_code = DALLIN | q = 1 | S = 0 | Stoichiometry = C29H25MnO2P(1+) | MND = 9
Mn        1.36334195260610    0.00229798997857    3.09379830362623
P         2.70417235673743    3.25520086569514    3.46844865082853
O         3.11571321154838    0.13622457432087    5.43114738960607
O        -0.86957352745531    0.81063469721447    4.79564812957428
C         2.43318508807646    0.11389032053751    4.50602944191888
C         0.01649293988208    0.47436083590298    4.14629811203998
C         0.87319732429005   -0.84074374616120    1.14846410667494
H         0.43172080697850   -0.38499491672807    0.27292116119369
C         0.17168728885964   -1.53204707495369    2.15741203774824
H        -0.89558407616382   -1.69933866294435    2.18418444398733
C         1.12372495832386   -2.12581402156970    3.02556288237324
H         0.90691327981996   -2.84255162742325    3.80698232774498
C         2.41840850107237   -1.81284690505752    2.52732688106738
H         3.34772478540386   -2.23747667911693    2.88131667671920
C         2.25898802658635   -1.01238000300146    1.37825721847726
H         3.05029133313124   -0.72249863411612    0.69984230339793
C         2.10491842968461    1.92677392499263    2.39968597973175
H         2.70060592471244    1.85821514361184    1.48316744908621
C         0.69835439889885    1.79251307130489    2.33047815000604
C        -0.40306001435776    2.38731730368031    1.91183881624316
H        -1.37467240546187    1.95677360110668    2.12263855766664
C        -0.43331922662721    3.65083554623574    1.16353149186024
C         0.58454597937496    4.01343735986122    0.28502311891330
H         1.42137658235500    3.34935387820307    0.12869161376492
C         0.50865516807766    5.19827641604658   -0.42202351168787
H         1.29333718448901    5.45890321937415   -1.11590999588931
C        -0.57442540613662    6.04428280333650   -0.24862976841162
H        -0.63191535682259    6.96883086959431   -0.80168533314717
C        -1.59225819268822    5.69097152991398    0.62215188567133
H        -2.44429842723804    6.34068332190419    0.75089885698899
C        -1.53050791845008    4.49690933087632    1.31546103013433
H        -2.33204601819818    4.21656686109665    1.98288776729794
C         1.62786224340597    3.36628723543936    4.92073922989447
H         1.75817665841068    2.47087451971126    5.53174207550074
H         0.58867350387818    3.43468138317404    4.59432182517852
H         1.89842665683193    4.24783816070479    5.50244629695954
C         2.67096584459142    4.83511367221666    2.59482000637547
C         3.67275026572153    5.06916952771326    1.65463185122300
H         4.44138347637099    4.32397436570032    1.49561145008641
C         3.68361532082217    6.25554617865812    0.94663150933781
H         4.45903748433638    6.44187006510744    0.21963902273070
C         2.69964083652102    7.20564460043241    1.17522717432507
H         2.71052900276424    8.13281394455586    0.62371916593746
C         1.70319597733162    6.97020644045694    2.10918860527450
H         0.94056969882548    7.71272588921278    2.28468245168229
C         1.68042621275765    5.78458434734483    2.82127306271856
H         0.89927425082767    5.60255048606659    3.54304372130255
C         4.40358995890130    2.96481789589866    3.99137402023882
C         5.09191708772981    1.80866509480459    3.64257649502601
H         4.60972190894261    1.05276954979329    3.03812368204622
C         6.39037108511284    1.63100915071185    4.08621538860277
H         6.93002585824348    0.73450270880774    3.82282988942645
C         6.99704997928845    2.60043860020785    4.86900684600151
H         8.00797032572401    2.45434633782059    5.21631714352681
C         6.31251874641372    3.75876997280465    5.20687661675743
H         6.79015458218367    4.51240786918601    5.81336441724590
C         5.01612887538534    3.94708112125784    4.76733193343377
H         4.47502920737119    4.85044968849444    5.01521994395422

