58
CSD_code = DALNEK | q = 1 | S = 0 | Stoichiometry = C23H27ClN5ORu(1+) | MND = 6
Cl        0.44251118529027    2.75644092345098    7.05290067387764
Ru        1.34829422491279    1.17590577501496    8.52420284518436
O         1.48529571554357    2.60322365738955    9.99973612236046
N         1.24662923453089   -0.28063862731185    7.11878525952854
N        -0.50701693506517    0.57721484496807    8.98279708943138
N         3.15590029276100    1.53006699948732    7.74010094246468
N         2.10765014411132   -0.21432659472677    9.67693417402192
N         2.39192877949074    1.18768203333198   11.56679287462651
C        -0.18143226205404   -0.35426117070732    6.77871922761767
C         2.08416029833060    0.21774436954453    6.01900221620030
C         1.75269866844529   -1.55263976131085    7.67440461300531
C        -1.02097388427761   -0.20972880448822    8.02231352128999
C         3.31221027410065    0.90269708783987    6.56232208028756
C         2.23463851008318   -1.42423305875300    9.10296609702729
C        -2.28262183457438   -0.77131210339216    8.13689921015505
C         4.50006784624089    0.97074407571587    5.85172580299385
C         2.77101441234372   -2.50620577006727    9.77472529827751
C        -3.04728184787445   -0.50059138288625    9.26191236347027
C         5.55007417807220    1.72466614661747    6.35412146686752
C         3.19308028889994   -2.34354672705585   11.08942406678071
C        -2.51713729574129    0.32800228818341   10.23860507338112
C         5.37178753204913    2.38788994439876    7.55831773010257
C         3.06105308027623   -1.10201533554584   11.68055784031050
C        -1.24406477527523    0.83885403060670   10.05911990113608
C         4.16271291027564    2.25736973918516    8.21740073346785
C         2.51220175172154   -0.05023159302582   10.94505382225029
C         1.92754130378962    2.40116909655774   11.12214296835396
C         1.96618574166775    3.52430045263144   12.16005217800650
C         1.65762217349807    4.84322433200816   11.44703159618175
C         3.34460960549340    3.61028746470916   12.82765552786709
C         0.88195706223401    3.23994367469385   13.20985595365034
H        -0.41379946748448    0.52797824734881    6.16500224691168
H        -0.43272439255835   -1.26317716548120    6.21887992309873
H        -2.66640661572488   -1.39711576972613    7.34666624657345
H        -4.03552823040622   -0.91864369461559    9.36656387776499
H        -3.08080355709708    0.57968651192060   11.12190235640331
H        -0.79782979701519    1.49631062407816   10.79584389439042
H         2.34027451769612   -0.56857047691911    5.29864529362594
H         1.51296908484742    1.00641789625516    5.50858031916027
H         4.59256798970944    0.45591881397825    4.90835779185752
H         6.47909827810715    1.80042250809231    5.81233474654685
H         6.15256506359677    3.00112388485161    7.97755484403966
H         3.98072294486207    2.76727294955095    9.15597713213309
H         0.96183392234272   -2.31185999614499    7.64740985471931
H         2.58118792661856   -1.92760133398237    7.06157340111945
H         2.73148771228818    1.18581462659204   12.52034027123968
H         2.85781351022516   -3.45985652566529    9.28067397054263
H         3.61526758802677   -3.16947512317592   11.63710675370469
H         3.37711539989046   -0.93974922853824   12.69879418668342
H         1.58778666890275    5.64990829430494   12.17066803446522
H         2.43928255349486    5.08468393973465   10.73127540262482
H         0.71740748260341    4.77704626571577   10.90626992072288
H         3.53571068846040    2.78026718895115   13.50579831507774
H         4.13734943751643    3.64534505578156   12.08323547795582
H         3.39621190234858    4.52423253362620   13.41381219824299
H         0.90417331306260    4.01696282814815   13.96923708505303
H        -0.10366157422983    3.24616736051495   12.75062298833562
H         1.03133127061551    2.28039377773957   13.70149419683106

