52
CSD_code = DALSAL | q = 0 | S = 0 | Stoichiometry = C22H22NO6V | MND = 6
V         0.15919355192269    4.81711084408023    3.49856433088563
O         1.06587240849159    5.84513539590619    4.54654718536484
O        -0.66362867480029    4.53260018304542    1.87378085149471
O        -0.53894768297074    4.27507308668170   -0.32827977079516
O         0.63149014198059    3.40763834115076    3.85676895143825
O        -0.40432922147507    7.22672087623227    2.50295544991191
H        -1.19924619208544    6.85822078291759    2.09209401118366
O        -1.30713796492112    5.03253833640185    4.20067599030055
N         1.68799877326489    5.16714165953438    2.20717569478789
C         2.23844730807679    6.35672207623625    4.70209359297210
C         2.57607019264665    6.95467153160488    5.94992493546082
H         1.82306986284786    6.94780510472718    6.72509977056577
C         3.80303402007731    7.50212982652807    6.14792348200433
H         4.05025608097273    7.95430554320123    7.09807323696514
C         4.79214325446423    7.48617082446254    5.13367360444724
C         6.07002064308662    8.02451277749096    5.37254698915316
H         6.27250659325131    8.46250908119831    6.33931307744812
C         7.04027136072632    7.98750773588755    4.40818955570839
H         8.02044951096005    8.39820858102964    4.59733003394999
C         6.75669748189249    7.40322633747153    3.16998656915438
H         7.52517753788143    7.36268222478622    2.41226752567915
C         5.51729798259275    6.87891621609042    2.90761089313271
H         5.34556632939655    6.42480031859419    1.94516430828990
C         4.49167802063352    6.90736401502648    3.87230745451923
C         3.18433900343690    6.36022465346149    3.65482425490291
C         2.79762524303076    5.78130653842123    2.40997619491126
H         3.49599250732583    5.86993557838770    1.57498694796525
C         1.48911871548263    4.50854300089838    0.95596175797912
H         1.97265786025354    5.02548531812923    0.11339567835704
C        -0.03744690593208    4.42702012193240    0.76277686321607
C         2.02612985545334    3.05316460235709    1.05496535021369
H         1.86326793193222    2.56874733742735    0.09112390072381
H         1.44655789901913    2.54067448930983    1.83038585956922
C         3.47775474361789    3.08843781725276    1.42536417932786
C         3.84590061148711    3.15666830386594    2.76707204277862
H         3.07861977998987    3.08989787290631    3.53017325641944
C         5.17618245641697    3.30335681781902    3.12116541749053
H         5.45154875178783    3.36337451743651    4.16375240482648
C         6.15236913487908    3.38101640585547    2.14193481282528
H         7.18928422621484    3.50167714352532    2.41871793929196
C         5.79541604021438    3.30142935943293    0.80583713434311
H         6.55469340946641    3.35422980797180    0.03896184686488
C         4.46527281393069    3.16199030521538    0.44963111386282
H         4.18900453310385    3.10945005806905   -0.59423766023600
C        -0.80672607622300    8.20116356505378    3.44490226707881
H        -1.38937544193993    8.99318840564736    2.96136939666104
H         0.10299986571336    8.63366803274802    3.86182087064125
H        -1.39489252723315    7.75703459714654    4.25492566737400
C        -2.36032882953464    4.35173994196174    4.73539747578525
H        -2.96419907837195    5.00286440767298    5.38604690388502
H        -1.99363902598457    3.48486940112069    5.30890891952652
H        -2.99727881645433    3.98492989869891    3.91267147937468

