51
CSD_code = DALSEP | q = 0 | S = 0 | Stoichiometry = C19H24NO6V | MND = 6
V         7.95354034137993    8.09612394274881    3.05643703328430
O         7.75200858513162    6.72842543819733    4.09301244038593
O         7.32694665473983    9.12305224156559    1.69007558712507
O         5.70514777017004   10.20063272052642    0.63563639401547
O         6.33734314424094    6.53227287715408    1.59377891123073
H         6.57827204747878    6.97563364032660    0.76853591843611
O         9.08323888452040    7.45006440221612    2.05737667921630
O         8.65549760486674    9.11069794932733    3.95826663341105
N         6.06915353617769    8.59180715652395    3.73698117431569
C         5.45646848533898    8.09220073281772    4.74769288712842
H         4.43805311196012    8.43524609504949    4.95263519346742
C         5.98446456072515    7.08362306785322    5.60757307407708
C         5.33295015828951    6.69268750106424    6.82424923626894
C         4.20579226808933    7.35444829920289    7.34842387067906
H         3.79453197587278    8.21080814162351    6.83804950645273
C         3.61688580675952    6.94455276292533    8.51705388386562
H         2.75298032763497    7.47106036660162    8.89522163717191
C         4.12523808535266    5.85494126693009    9.23018550721671
H         3.64949899923822    5.54371563294661   10.14777227945364
C         5.23022088919012    5.19876806113032    8.75921944753024
H         5.64511643250703    4.36214402956663    9.30265925534756
C         5.85512991546741    5.59948261105043    7.56420864341615
C         7.00979457684442    4.92658646524965    7.09323497197242
H         7.38914329539945    4.09495166552235    7.67003377225633
C         7.63763822269767    5.31101131475698    5.95246186983368
H         8.52428478647056    4.80881950151704    5.59266755842412
C         7.15012785935294    6.40833002982584    5.18549670193114
C         5.38452876623846    9.57382841748466    2.94139928776686
H         4.35302452070911    9.25740290196486    2.72014314933544
C         6.17208377087748    9.66931735979716    1.62058047313415
C         5.34031340626851   10.96477565611816    3.63028724008945
H         5.04150774254615   10.79973770655690    4.67509050766044
C         6.71943694685367   11.62084820486884    3.61763852782272
H         6.73534412075610   12.48182054163312    4.28107134704910
H         6.97118791496535   11.95005582973334    2.61102123094713
H         7.48112555233301   10.91410158108946    3.95267534967501
C         4.28007222825646   11.83235368048255    2.94198692868196
H         4.54960994055905   11.94713314243972    1.89131591639475
H         3.31898526522484   11.31202097076006    2.98109382308262
C         4.11883193883549   13.20321383620164    3.58895501724966
H         3.28228076091879   13.72979468816093    3.13585273598768
H         5.01059199466316   13.80748408459523    3.45348345401549
H         3.92461547841643   13.10464674972338    4.65542503774951
C         6.73490622241577    5.17887701879677    1.49963145864266
H         6.25096565070275    4.68902689027069    0.64715949450164
H         6.41434121379586    4.69025549247915    2.41954573058592
H         7.82214383090012    5.08566732428500    1.40641482518548
C        10.31568793092473    7.68184982891373    1.52132245256227
H        10.98943991341910    8.08818036716929    2.29322983017735
H        10.21249062404401    8.42932083381211    0.71594586633248
H        10.74451593947317    6.76039897844352    1.09719024746608

