34
CSD_code = DALWAQ | q = 0 | S = 0 | Stoichiometry = C12H16BCrNO3 | MND = 9
Cr        1.63579178979238    2.47751933956523    1.06688217276661
O        -0.53426818612185    2.48410943593048   -0.97181753737244
O         0.20634619976408   -0.03309049543195    1.77795188375194
O         2.79232460421366    0.56115541002974   -0.89217099653676
N         5.99039602444399    2.94869830733703    2.78577017227946
C         0.30117230135555    2.53132818316226   -0.17725964759827
C         0.75652013370575    0.95568983890985    1.54383464461291
C         2.37031738855601    1.32902796043881   -0.13831813726525
C         3.59652608429100    3.01232935285923    2.03831484484113
C         3.32151891496203    3.97081611594557    1.03399534725769
C         2.13085679493926    4.69019996707010    1.05111216153386
C         1.18553786964970    4.47168739376417    2.07585747601583
C         1.44667889527880    3.53232337869921    3.06918885614642
C         2.64861642049832    2.79405970276019    3.04414058020535
C         4.90878339987502    2.27628346935003    2.03440882825940
C         5.66050720180063    3.01965145720399    4.20507871407960
C         7.20882109676149    2.16030606871259    2.61841286971742
B         6.27215226647432    4.47626543578750    2.22750808702033
H         4.08399620030570    4.19704379532961    0.30094394606759
H         1.95927566223523    5.47253519553882    0.32229302557254
H         0.29419199950366    5.08523012855036    2.12616610567261
H         0.75970656025369    3.40655347115827    3.89765440395440
H         2.85726318078740    2.10097428844702    3.85181055251899
H         5.25098098184807    2.17359316858130    1.00179447265176
H         4.76342143468405    1.26927777151361    2.45213880156977
H         6.48449858884355    3.48974251845594    4.73679162510916
H         5.48449657229423    2.02233023904609    4.62137276645615
H         4.77803913285674    3.63922546910208    4.34640132093738
H         8.01762136092334    2.62824295330704    3.17408774609777
H         7.06864230111765    1.13514569435042    2.97491981336918
H         7.48865298698038    2.14191127548274    1.56772487823537
H         7.23063501268861    4.86906995799731    2.81417268175485
H         5.30265695000222    5.12501907733584    2.48294374320536
H         6.46702187443473    4.37534467370977    1.05539379711204

