79
CSD_code = DALXEV | q = 1 | S = 0 | Stoichiometry = C39H33N4NiO2(1+) | MND = 6
C         4.60057518543947    3.27893010990142    8.29825771847191
C         5.24337730787738    4.02258034395588    9.27138685902760
C         4.74623419381816    3.99922283565963   10.56472333472471
C         3.61336833398348    3.24590860064442   10.82034008530425
C         3.02033008677238    2.53277797128985    9.78707580649716
C         1.74843476953025    1.76227845422144    9.99362548784417
C         2.35267377133878   -0.56640365192260    9.80681244631364
C         3.85601242603424   -0.46287019051592    9.75315243834791
C         4.65707298077181   -0.77834515174892   10.84148342893388
C         6.03433926789991   -0.72557075850064   10.69439307630748
C         6.56099580255712   -0.36597359788708    9.46442738517100
C         5.68453370519660   -0.06045839673488    8.43516249501023
C         0.31648966072816    0.25309146961601    8.79577868829107
C        -0.20845221098019    1.16394456502060    7.71013284935704
C        -1.55174994347803    1.13005280146011    7.35748465824033
C        -1.97524982149793    1.89120579335919    6.27972373608409
C        -1.04517290051000    2.64554557558671    5.58712928642504
C         0.28006489563298    2.64259140078344    6.01654215465378
C         1.32053430183246    3.41105608441197    5.31620291100577
C         1.43176569739023    3.34760941073778    3.92976282405199
C         2.43407684060888    4.04500103904677    3.28201463496429
C         3.33018810813332    4.81331812171080    4.00726105149304
C         3.21639221779371    4.89045467548960    5.38478718598172
C         2.21873427560105    4.19090285535430    6.03990555356297
C         2.48604721395497   -0.45850869768665    5.16908807299883
C         1.69576026493224   -1.59971595178236    4.63391611386520
C         0.36510237583425   -1.72976386094244    5.02342742458365
C        -0.40563062184938   -2.76791385405675    4.53496902849106
C         0.14999261291684   -3.69491894620985    3.66816402139077
C         1.47796200627171   -3.57901687005002    3.29047329409590
C         2.25068859044361   -2.53505727218444    3.76632455720091
C         3.36188096521430    0.19808364868980    4.30416415209877
C         4.10944408264679    1.30080939765082    4.73388750992108
C         5.04839247825932    1.95004976117053    3.78483054997885
C         6.18115116578543    2.58450457827271    4.29071761821284
C         7.06922965936228    3.21909799984350    3.44398773488987
C         6.82995609632386    3.23961655452046    2.07975685106362
C         5.70051604216197    2.62057807783861    1.56907396715044
C         4.81448250376085    1.97611215631736    2.41236257271026
N         3.51967831120954    2.54465876273884    8.54592947270041
N         1.69662558164061    0.56456248704266    9.15135669282954
N         4.36732091400399   -0.10321259170365    8.57692885479920
N         0.67529442539916    1.92331718310769    7.07122034000580
O         2.26226179870035   -0.16006798727123    6.37732463339755
O         4.06358309646745    1.78526070141168    5.90007825398582
Ni        2.87782491033664    1.22679388968849    7.35593285385792
H         4.95024496991700    3.27169950304556    7.27484035188005
H         6.11541939846955    4.60394232060480    9.02010421089458
H         5.22511205461902    4.55655098172065   11.35450485737952
H         3.18665752421335    3.20996870056137   11.81040523326751
H         0.92665941180684    2.42450208439234    9.69941190547472
H         1.61681040544768    1.51088330471490   11.05639948309963
H         2.08522774565176   -1.47583071173370    9.25976319234205
H         2.01635168457767   -0.67555735337464   10.84887725659668
H         4.21311108853582   -1.06612880748418   11.78195022381376
H         6.68202918387091   -0.96558731503936   11.52362102808634
H         7.62629366468715   -0.32467478809067    9.30571176988122
H         6.04646408725226    0.22485739166482    7.45617554758674
H         0.28411583884962   -0.76407048260042    8.39410003632922
H        -0.34521638581805    0.28984844444981    9.67434134327848
H        -2.24280215110551    0.51033099917735    7.90728525034104
H        -3.01188135261193    1.88502268050227    5.97961476193983
H        -1.33350451824222    3.24271841970792    4.73715402051241
H         0.74586522402446    2.73229501448890    3.36558371007391
H         2.51913910975750    3.99054827672738    2.20739955079803
H         4.11442610758524    5.35114819168734    3.49652966546500
H         3.90385489546061    5.50286408725050    5.94971446289836
H         2.10099959545211    4.27743897492804    7.11086005982653
H        -0.06043289536519   -0.99677888781879    5.69385056243636
H        -1.44021136006878   -2.85572014746161    4.83111536002942
H        -0.45002539878069   -4.50810458338626    3.28958062711519
H         1.91425309923915   -4.30571788849265    2.62221960928416
H         3.28965767704602   -2.46018040699869    3.48371620158946
H         3.46395619603968   -0.15976091194635    3.29596136367459
H         6.36441105707509    2.56054585591267    5.35499908101185
H         7.94854766671500    3.69933624531397    3.84641216834808
H         7.52020712437460    3.73775071361500    1.41624710633009
H         5.50907590395241    2.64122785443195    0.50678467266416
H         3.92794992112535    1.51691271217404    2.00378465947152

