26
CSD_code = DALXIX | q = 0 | S = 0 | Stoichiometry = C6H11ClN6OPt | MND = 4
Pt       11.06998264451102    1.92405730857358    3.04208194941751
Cl       13.26004728128233    1.39071309775263    3.19325510101462
O        10.22613816970773    5.24822720258433    3.14639217155370
N         8.13140504445053    5.93843498679697    2.59109849144350
N         6.29380956419453    4.45292693981710    2.28947909473857
N         9.08893086428141    2.37197641615121    2.87311433603276
N         6.92030767007569    2.12307419113457    2.48636358503251
N        11.03710753454081    0.58827853282815    1.42758281643562
H        12.02133635025527    0.29563513305181    1.41502237127079
H        10.82609791608261    1.06759830203909    0.55232848615679
H        10.44718165702779   -0.23706057565180    1.51113782853286
N        11.29832745125264    3.28681551687585    4.52663464187607
H        12.28723523342247    3.39608503407316    4.75396337911767
H        10.76868846258059    3.14868195883044    5.38590817383647
H        10.95283973241906    4.17610839068770    4.03618999317667
C         6.88169137611736    5.64475709535742    2.34143811083766
H         6.22589663601898    6.48791248922789    2.16004733643563
C         7.16878521305626    3.47185435827712    2.49596531307980
C         8.53228955752172    3.62299976268876    2.75234525512533
C         9.04914743727538    4.97467772589263    2.84263963110169
C         8.10446028814166    1.51122829039140    2.71037711824236
H         8.19906340866942    0.44321066912670    2.77120905987253
C         5.63513327220635    1.52112093729096    2.27229317629144
H         4.92148278425448    2.33269973973469    2.14092145629027
H         5.34518000654705    0.91427828981485    3.13155112672029
H         5.64353444410633    0.89530820665265    1.37805999636699

