65
CSD_code = DALYEV | q = 0 | S = 0 | Stoichiometry = C28H30Cl2IrN2OP | MND = 8
Ir        1.63966365914511    1.34640117862197    7.85820433953530
Cl       -0.65386681091491    1.65888456341080    8.40383495245854
P         0.61844958154107    0.22763360147674    6.14728245149733
Cl        1.60282274657153   -0.76289578275597    8.90672568876962
N        -0.47681784986191   -0.95952073878385    6.64647430566248
H        -0.84598107380918   -0.89324720617588    7.59925926829607
O        -0.43055038752248   -2.38087710981938    4.86911859943396
C        -0.78341017276601   -2.11614772359463    6.00016131336479
C        -1.61460489647511   -3.03653620270282    6.83319018285137
N        -1.98005794539127   -2.59210345763666    8.03148988159484
C        -2.70084082184261   -3.38052810456766    8.80112186665352
H        -2.96914513963941   -2.97121686977168    9.76575735512682
C        -3.09957042586816   -4.65643210258941    8.41955311624638
H        -3.68869945851110   -5.26751596359221    9.08543413021076
C        -2.72205808683180   -5.11919691066172    7.16908976491459
H        -3.01239576695174   -6.10486992551780    6.83529118035993
C        -1.96309192237502   -4.29485354085597    6.35400614349431
H        -1.63508744452155   -4.59610436480174    5.37175802520954
C        -0.34220633083904    1.19348906853597    4.93548569053491
C        -0.88098556291738    0.56289431518755    3.81672580051675
H        -0.72413513423525   -0.49546758943183    3.67080433167239
C        -1.61093665940764    1.29872625629492    2.90107315840909
H        -2.03025615065235    0.80958409423980    2.03409671187054
C        -1.80522728405748    2.65806269342669    3.09147132491746
H        -2.37509966590531    3.22776752745466    2.37201487493585
C        -1.27580387350787    3.28381171919981    4.20763160769341
H        -1.43618466646814    4.34078412860475    4.36300187278038
C        -0.54745602693097    2.55239139990460    5.12930291728061
H        -0.15448224305465    3.02100832205876    6.01772384288983
C         1.82260153124675   -0.68703569258307    5.14226794992662
C         2.23300644847140   -0.22804769206222    3.89654366073622
H         1.76424085405409    0.64280434725047    3.46039718142258
C         3.22703103834983   -0.89985874037939    3.20642992211558
H         3.53747687673419   -0.54597546673365    2.23369471822023
C         3.82080185627425   -2.02241462217577    3.75845157015035
H         4.59320722982166   -2.54643394421462    3.21478156795787
C         3.42524876149793   -2.47060524728418    5.00923812413593
H         3.89155578640689   -3.34297842233057    5.44262349092131
C         2.43768577556674   -1.80109099860730    5.70579254272358
H         2.13770502733813   -2.13017910564281    6.69034974044676
C         3.54134435636628    1.93487312974437    8.91852054422778
C         3.78644647500996    1.67530920251092    7.51949189897982
C         3.09852387968343    2.67474000273629    6.75897630352798
C         2.34129496786784    3.46509530046899    7.67163713213122
C         2.63304000503618    3.01231767978464    9.01243886767673
C         4.22592897626409    1.21510651253713   10.03185588729963
H         5.30610633496130    1.32545002601450    9.93156765707996
H         3.98892618904042    0.15159057244241   10.00370868486668
H         3.92041429613031    1.60559857195736   10.99874512289241
C         4.80870262337494    0.71275342351980    7.00933056282482
H         5.80513493362023    1.15407385226761    7.07717284568759
H         4.61917296768111    0.44780838103107    5.97144988652882
H         4.79813265901176   -0.19950833374925    7.60138318351751
C         3.25152395711742    2.92183022732031    5.29345077728651
H         4.02650410345240    3.67326156260456    5.13029905237084
H         2.32538974747406    3.28543895721515    4.85220728409347
H         3.54534981987002    2.01193205553527    4.77513630163484
C         1.58704280606702    4.71855596957416    7.36711359550790
H         2.13448916049479    5.57701281623137    7.76053869405412
H         0.60620496686578    4.70592828349966    7.84085162749031
H         1.45980166931028    4.85442635404552    6.29606774783403
C         2.15938998473555    3.70827854632248   10.24710410680118
H         2.69234908868994    4.65342350450107   10.36926124296279
H         2.32544495131198    3.09795243619359   11.13086732076085
H         1.09479570880560    3.92494127529609   10.17896850403720

