62
CSD_code = DALYIZ | q = 0 | S = 0 | Stoichiometry = C24H30Cl2N2OP2Pt | MND = 4
Pt        2.82657301403634    6.20726237098053    5.03731212332413
P         1.18363719404989    4.65712389710218    5.41389454879084
Cl        4.37234558208806    7.87596575462027    4.75346616243478
Cl        1.56536042665636    7.67586723081968    6.29598800063665
N         0.14399154814909    5.10823425873504    6.66407037948348
H         0.23031028131689    6.09051985845718    6.97368547819501
O        -0.88683492590372    3.12344422924396    7.04274599993421
C        -0.71012217751038    4.29114909526983    7.33122862269761
C        -1.41485619812574    4.96604625605657    8.46126406930388
N        -1.12609998914349    6.24647248033316    8.67002879435388
C        -1.73200754836705    6.87376113555988    9.65650795774649
H        -1.45989546894687    7.91303794701232    9.78274140467679
C        -2.65915025254659    6.26059775540302   10.49150309403445
H        -3.12989817215140    6.81577798218438   11.28776347805447
C        -2.95995124235570    4.92525392903000   10.27500534688585
H        -3.67497479319838    4.41238767585595   10.90191074501569
C        -2.32698524404191    4.25890466198789    9.23825089780747
H        -2.51658458912376    3.22029870124164    9.01750781021267
C         0.10161678828866    4.46293607932880    3.96426146836345
C         0.36593825986881    5.28706841048459    2.87460984494357
H         1.19820703863801    5.98670156871254    2.93544954773785
C        -0.42753602312614    5.22397550244401    1.74438496255816
H        -0.22166917488586    5.86550540515610    0.90030231942511
C        -1.49393080873712    4.33973026590390    1.70263778024483
H        -2.11663839262933    4.28800967014527    0.82159201812310
C        -1.77059022458278    3.52948100645132    2.79274237491829
H        -2.61002735507970    2.85044209059882    2.76003964799107
C        -0.97952365873604    3.58711866969688    3.92677536579315
H        -1.19778639278865    2.96679070117757    4.78306958792875
C         1.69744143008268    2.99412737175330    5.94052025704371
C         1.53530825287350    1.83755762482380    5.19039143649695
H         0.99837821989101    1.86688392455413    4.25278327106064
C         2.04035403279666    0.63734309845909    5.66038041122062
H         1.90602197786476   -0.26346736340788    5.07947976124846
C         2.71022811715178    0.58611889638366    6.87108981259947
H         3.09989565281839   -0.35383149021093    7.23296661271169
C         2.87706615542977    1.74026444815640    7.62102902284832
H         3.39731094875563    1.70153434227992    8.56676104089996
C         2.37885695447137    2.94063365694693    7.15381840382101
H         2.50728733764120    3.85161356003312    7.72546293907510
P         4.24498112409093    4.86140529423759    3.82654029827167
C         5.54469079990607    5.62767863577754    2.77794415291344
H         6.11714343373491    6.29063550415991    3.43020809800828
H         6.20660657565488    4.84082570221434    2.40463826088179
C         4.94079745523172    6.43876211665717    1.63884032578369
H         5.72249531966654    6.96089712197742    1.09169185586943
H         4.25760462314609    7.18096298624115    2.04839507763342
H         4.39755612873355    5.80443927564738    0.94112271363506
C         3.45724217880334    3.61658784686151    2.71090461549072
H         2.67804309216232    3.12866281966722    3.30161936613845
H         2.95616125636346    4.17253349052912    1.91390662756261
C         4.38954616706694    2.56899942711097    2.11698674012992
H         3.81962058342225    1.88760898815573    1.48803172435085
H         4.86763758917488    1.98513407470026    2.89927205857995
H         5.15988615500878    3.02610669036114    1.50145947285473
C         5.21632613053420    3.83859278961661    5.01118057202811
H         4.58230861122953    3.00448099908492    5.32582451677122
H         6.10566010452034    3.43919792389791    4.51668062247963
C         5.60419635222479    4.68524392216780    6.21886807993529
H         6.07583655342117    4.07544988674295    6.98667009367204
H         4.71185245269069    5.15600432486958    6.64410832076355
H         6.29104073232718    5.47764751956083    5.93018360560358

