39
CSD_code = DALYOF | q = 0 | S = 0 | Stoichiometry = C18H15AuClN2OP | MND = 2
Au        3.00131908465093    1.47583591659451   -0.26494126058304
Cl        2.47890863418423   -0.30709637381282   -1.55002242511807
P         3.47903472517205    3.28779827900198    0.96489820321008
N         2.14271803153716    3.83509042547361    1.86451187865332
H         1.59380272506056    4.67366732559756    1.70832378289650
C         1.62440645850875    2.79713891510422    2.57654310365153
O         2.26825160636527    1.76168893188837    2.61597704786443
C         0.31628252869996    3.01956710835671    3.22566540823712
N        -0.23841488258760    4.21765365057714    3.03878520640771
C        -1.41759912471308    4.44429056323704    3.58325114285849
H        -1.83015092927333    5.42877079202958    3.40676498006657
C        -2.10643410427354    3.49976551823886    4.33538883546861
H        -3.07111473380904    3.73645284220532    4.75620381188056
C        -1.52744712819775    2.25505142255993    4.52645110454401
H        -2.03241604065725    1.49352284702809    5.10245379427031
C        -0.28713971544838    2.00459118810623    3.96197684415627
H         0.21715981347056    1.05724666264826    4.06628925919880
C         3.85436622738551    4.81444520308625    0.06347014042031
C         2.83308982371816    5.39189130411322   -0.68841032874897
H         1.84446666274032    4.94970738858051   -0.67652420251311
C         3.08581792639876    6.51322889609844   -1.45491413568748
H         2.29035398910514    6.96440309750146   -2.02922347626381
C         4.36354729149930    7.05009946687257   -1.49463566715376
H         4.56170086147678    7.92456564302682   -2.09595689431717
C         5.38884433761409    6.45787479582546   -0.77605212672745
H         6.38716950696116    6.86723500090524   -0.82059022461285
C         5.14049208963744    5.33714101177073   -0.00323198069680
H         5.94013927400961    4.86849363056707    0.55336191016575
C         4.78461300898962    3.16952094548288    2.20968336123774
C         4.97015481523717    4.18343766391291    3.14467772104385
H         4.33198103864577    5.05700493148029    3.12306466274155
C         5.97076681057443    4.06135382253046    4.08985661908740
H         6.11955584565769    4.84324817014032    4.82018844666512
C         6.78279450117031    2.93682282147276    4.10145555360957
H         7.56249907832659    2.84662655219118    4.84325108202242
C         6.59505197293120    1.92810637528680    3.17056068442187
H         7.22540936233689    1.05173250601998    3.18673576533635
C         5.59312651983596    2.04118227305950    2.22288230017079
H         5.41759210700913    1.25944248525453    1.49553007211593

