75
CSD_code = DAMBOI | q = 0 | S = 0 | Stoichiometry = C35H38OZr | MND = 5
Zr        5.29942871269599    2.58720168793029    3.87720734624563
O         4.18268364673370    1.78388503278144    5.14467806939752
C         3.13251135599837    1.59749191321320    5.94087802524340
C         3.32732441974900    1.08803491765891    7.24650327987231
C         2.21911994911462    0.94369735006480    8.06562150177009
C         0.94979475075773    1.26990148621829    7.62666470519730
C         0.75954897049706    1.72877905722587    6.33796267082105
C         1.82947153158107    1.89582143155735    5.47348217647823
C         4.72787104890404    0.69667432839837    7.71449236625335
C         5.64497605603794    1.93013701041800    7.71254698737261
C         5.30151600649701   -0.38057306866001    6.77912429400833
C         4.72757057574805    0.12210768641235    9.13647122911395
C         1.63352535067700    2.35590158284852    4.02918389029376
C         0.16100359309902    2.59527393906578    3.66947692936921
C         2.37638556273161    3.68826876576048    3.80014420905965
C         2.15479184477727    1.25806346613971    3.08275395764203
C         6.80533798885016    1.00020770288653    3.72027225759156
C         8.18287730477108    1.49931302827407    3.79359955452201
C         8.78034124256603    1.71806600473918    5.04317626730565
C        10.05785216633856    2.23585891122920    5.13634800288511
C        10.76513942570461    2.56404738947982    3.98947008106538
C        10.18442729334242    2.36616121493401    2.74656338658968
C         8.91035134604053    1.83908068074493    2.64433736147528
C         4.92251707144591    2.42938797500635    1.71343706195996
C         5.06944243475400    1.49755214586754    0.92807996506179
C         6.45218019884343    0.01900184281162    2.86290405839333
C         7.35255739857280   -0.69306652212289    1.96929904091650
C         7.07747990772219   -0.96380579966423    0.68139038536036
C         5.93491008808474   -0.58839106449884   -0.12187109185501
C         5.09729995401494    0.46739039051848   -0.03654566944220
C         6.16875724109001    4.36636972239942    4.99401059737299
C         6.16116515252755    4.96681860125549    3.66876638166563
C         5.05072331059831    5.69451416200994    3.18115712610517
C         5.00513298274751    6.13893839895528    1.87348498366624
C         6.05406593997577    5.88792195089771    1.00214767085159
C         7.17052045164028    5.20558509067133    1.46586335034046
C         7.23232852506211    4.75556405533592    2.76889508888142
H         5.74315611608939   -0.15799723651704    9.40928477364004
H         4.37785790897531    0.85538255610270    9.85933810694493
H         0.09666514601924    2.92079485167563    2.63307770788141
H        -0.42178144800729    1.68364585711112    3.77193786297640
H        -0.28102028013902    3.36844639986498    4.29335192131660
H         3.38308856724130    3.66393944154793    4.24994212375979
H         2.46007869787671    3.89644419489957    2.72882870489734
H         1.81410838299002    4.49810877840999    4.26791131278062
H         2.09004705599730    1.58797702491645    2.04538497916523
H         3.19652130986094    0.98944005722298    3.29896942122078
H         1.54218748020006    0.36461925130276    3.19814848418157
H         8.23045754189822    1.44910698843273    5.93901674109241
H        10.50830883790560    2.38877187601130    6.10715184131685
H        11.76202733318298    2.97237133471228    4.06442743525482
H        10.73163585727055    2.62290633002940    1.85061381363250
H         8.45220080292197    1.69743493919455    1.67381178852939
H         5.40142074393277   -0.27943588734744    2.77788433792219
H         8.32473507470004   -0.96577113317301    2.36415608205213
H         7.81383206206849   -1.53965898681082    0.12891033714961
H         5.78602459115473   -1.24004896025785   -0.97827274734546
H         4.32758465564620    0.54919535738761   -0.80143715009420
H         7.17646257478864    4.21969999742489    5.40159860123936
H         5.51209543070831    4.87243562452427    5.71429492953073
H         4.24747780069909    5.95866988130543    3.86493953986258
H         4.14691787214494    6.70129185293146    1.53194268488439
H         6.00973973538313    6.23229027344626   -0.01912607829866
H         8.00836380815012    5.03483847233005    0.80504603857790
H         8.13573032360016    4.27510294334981    3.13169914987882
H         2.32856133621527    0.56842349875504    9.06904611241293
H         0.10416805227605    1.15196643746030    8.28741538445436
H        -0.24347542504195    1.95262243647858    6.01487554025055
H         6.61093566722679    1.67145051709614    8.14369062563770
H         5.80272929396691    2.29669640389594    6.69190826674592
H         5.20441651052971    2.72467452706876    8.31330231881020
H         5.42491779387798   -0.00093086435913    5.76077966437597
H         6.27388450492268   -0.70785027452349    7.14303118444870
H         4.63720147116739   -1.24228314131261    6.75371004541619
H         4.10750601128256   -0.76855408931144    9.20073061464733

