66
CSD_code = DAMBEA | q = 0 | S = 0 | Stoichiometry = C29H33N3Ru | MND = 5
Ru       11.19982265090300    0.66744228105311    8.81610248774007
N        12.18997251017780    1.37178063177967   10.43752902057381
N        12.58785177592039    1.69377377872271    8.04491557676099
N        10.83055872372463    0.49956846777663    6.82471156532803
C        13.25086652427789    2.12047507610532   10.20960947732210
C        13.53699173414915    2.30279954955960    8.82986598852775
C        14.58148958133879    3.04567275822883    8.27751246415359
H        15.31124298931942    3.50212216736260    8.92668235709881
C        14.66460671450142    3.19304743701995    6.90243701127723
H        15.46453342767720    3.76860899353831    6.46249566235996
C        13.70707038678173    2.59539556088983    6.09837309998395
H        13.74499756789317    2.69805086098744    5.02587465331980
C        12.68417680560348    1.84830942776603    6.68358412648208
C        11.66134179428436    1.12362400909390    6.01386235467820
C        11.72518875933866    1.23114559340176   11.75741360389111
C        12.26823534530705    0.26141303929196   12.60595139117837
C        11.76268938388084    0.13667313177292   13.89096664264981
H        12.18020323309469   -0.61485568243752   14.54679837031905
C        10.73540569468696    0.94894445321863   14.34810797628119
C        10.19315242749644    1.89032148450410   13.48120697066175
H         9.37875259550387    2.51502804986926   13.82063927015614
C        10.67034656815761    2.04457121986992   12.19157829182837
C        13.34874464244609   -0.64121097589973   12.09247841105016
H        13.10611805464638   -0.96409793740171   11.07659287453848
H        13.45953130767544   -1.51476308385605   12.73019536854414
H        14.30486828290879   -0.11903687623712   12.05390193087905
C        10.20465617598854    0.81809222938380   15.74454944062479
H        10.66415934996367   -0.02225080309198   16.25882082992213
H         9.12553870041302    0.67140638405564   15.73089096210665
H        10.40935783602509    1.72493074769900   16.31352069839256
C        10.07539786952026    3.03042082803460   11.23400473026920
H         9.12336311137665    3.40508813150712   11.60034373767928
H         9.92513327163792    2.54369957286308   10.25575767627386
H        10.74830938469393    3.87501378356216   11.08131697729678
C        14.05098213421245    2.80157194941337   11.28160269920187
H        13.61213472662406    2.62973389975510   12.26138355494307
H        14.08824686622477    3.87474549914373   11.09705885461083
H        15.07497629072681    2.42760366830344   11.28338007385352
C        11.59742736755761    1.04623812926110    4.51611810197039
H        12.53282424675874    0.65121801064331    4.12021240948345
H        11.44964125593469    2.04022939529400    4.09381095550523
H        10.78187728941927    0.40296579770558    4.19488716918491
C         9.83759469616214   -0.32677954377811    6.26756256660040
C         8.59493500668462    0.20710423047491    5.91273487593716
C         7.62929378310638   -0.63623617417228    5.38595307782299
H         6.66739106886667   -0.22520421469758    5.11224742227394
C         7.87066766828239   -1.99061669621537    5.20547624103836
C         9.10316396263928   -2.50593299284869    5.58852038546282
H         9.29439640006643   -3.56352265940442    5.47137475532657
C        10.09237342668305   -1.69556374342766    6.11806429684012
C         8.33343719531486    1.66356399450435    6.14730891473695
H         8.84823266776793    2.27385596254478    5.40496075743745
H         8.71455984191607    1.94889326417067    7.13254411884986
H         7.26960025684381    1.88108609151260    6.09612511486300
C         6.81739567681801   -2.89515014914086    4.63845379874666
H         7.24246792400921   -3.55279763507412    3.88224431893506
H         6.01103266210206   -2.32006022314746    4.19001637793728
H         6.39512714156087   -3.52130810305466    5.42492865440558
C        11.41388830004234   -2.23854469480772    6.56734203784904
H        12.20408019191649   -1.95848810379063    5.86990472229368
H        11.38516473836761   -3.32228309572233    6.64360850196588
H        11.66938363403819   -1.81058174574058    7.54848221530566
C        10.12268295595600   -0.45335013164258   10.16218794747713
C         9.48267752108847   -0.43799084532134    9.06736698838916
H        10.10965933078688   -0.78328489246728   11.18641859649233
H         8.61500859020625   -0.80811853831736    8.54942749414674

