47
CSD_code = DAMBEZ | q = 0 | S = 0 | Stoichiometry = C16H27NRuS2 | MND = 9
Ru        3.80849048168013    4.18825562335459   13.59426459513440
S         5.70046782195285    5.59614244192554   14.05606048588420
S         3.53960182487138    4.94588547468696   11.34031692104305
N         5.37436302975822    2.92485544374409   12.69484612644434
H         5.23131324593596    2.02356915032197   13.15656502459835
C         6.80291002032961    4.15728707059850   14.26661021868496
H         7.80790878023552    4.53249267566135   14.45768736544053
H         6.46905775999895    3.56489139869592   15.12310366913433
C         6.75979995066737    3.34926176115850   12.98098938599257
H         7.42498363313646    2.47472810020647   13.03117908732870
H         7.09624366997565    3.99979794474939   12.17048388119478
C         5.14597988212846    2.73864831617246   11.25216096490604
H         4.22978559964793    2.15249670301928   11.12509210935630
H         5.98685358932754    2.19229789717798   10.79789512755834
C         4.94870789363965    4.08704026592264   10.57414116592251
H         4.71679063785873    3.95426512310820    9.51729125170131
H         5.82732811307109    4.72740503658909   10.67090276817343
C         3.20188098541848    2.67009031248008   15.18377195158036
C         2.30938772758861    2.54819105013217   14.05869765103559
C         1.56504031040821    3.66520991584306   13.62823080753019
C         1.83756989534539    4.95832635793267   14.18841484618049
C         2.69435460845504    5.07916289181753   15.31190060375014
C         3.37533106012903    3.92430648275631   15.81401984996999
C         3.81593310090598    1.44222264905065   15.81968266295874
H         4.90386470702846    1.43163664648012   15.72558697117860
H         3.43111251531875    0.52391346451696   15.38799689505673
H         3.57393160382022    1.42586217028584   16.88237173977035
C         2.09583041861036    1.21062572906808   13.38795831318338
H         1.84467838446852    1.34702928712912   12.33898723653602
H         1.28157666752897    0.66476951176027   13.86901538648799
H         2.98863739502038    0.58947049209701   13.42627427400885
C         0.50385666139677    3.54062672818538   12.57138250387472
H         0.91993553486175    3.80453075667965   11.59573518134473
H        -0.31722903600133    4.22093721336031   12.78363195426242
H         0.10026216466398    2.53311009872146   12.52426980055771
C         1.14072685183113    6.16858626442338   13.62409588148879
H         0.17111396087965    6.32149262652856   14.10273719478564
H         0.99578164032118    6.05119680680732   12.55350820038326
H         1.75176952908256    7.05598435224142   13.76378258863704
C         2.83095033026134    6.38541855826352   16.04826436463114
H         1.98873176792106    7.04027897391849   15.84969501573326
H         3.74635775271286    6.89392648207202   15.74248714780838
H         2.87763477655267    6.21363179342117   17.12095868407713
C         4.24725732660613    4.07521346076442   17.03240670614787
H         4.90456792408380    3.22301303138676   17.17574354282313
H         3.63124534611972    4.18181600588581   17.92758498915650
H         4.86762215454884    4.96479945872963   16.93351690655734

