124
CSD_code = DAMCAX | q = 0 | S = 0 | Stoichiometry = C63H57N3Ru | MND = 5
Ru        6.90322368705340    5.56345390739253    7.64699738378759
N         5.07841400079646    4.68912977500557    7.85553844061018
N         6.54766335200534    5.15501776175936    5.88491463786046
N         8.66569233851714    6.13492609018232    6.78305664256949
C         4.48983004952868    4.47123002519678    6.69944761594212
C         5.29162264691399    4.74555109316071    5.54549446593263
C         4.95223451395315    4.55152104447569    4.20746380755263
H         3.95381901572394    4.24383688389061    3.94384572705847
C         5.91423808949848    4.74986385198064    3.22854007055633
H         5.66776889353470    4.59027064906652    2.19052017478889
C         7.19108197448651    5.16084963006643    3.58236608325134
H         7.94350361376731    5.32596910170873    2.82826826500051
C         7.48775569627911    5.38230293770494    4.92669851657884
C         8.70005239209593    5.90110729062644    5.48995790569517
C         4.60813513319287    4.04488891856716    9.02039603286950
C         4.20902817602070    4.75810435446576   10.15770295620313
C         3.86853906256318    4.07052508854730   11.31466552586259
H         3.56455329376031    4.64128510770909   12.18097354065076
C         3.90622801106975    2.68915151282673   11.38281655985458
C         4.29056650895239    1.99413025830462   10.24503515146852
H         4.32814148358603    0.91422699364150   10.27457809199761
C         4.63872200957392    2.63606709606206    9.06809167758242
C         4.08816675139661    6.25301477268833   10.17205802911796
H         3.03942262314313    6.53845113351964   10.26549493538132
H         4.48657494926429    6.69854689437151    9.26524680913702
H         4.62081244049309    6.66623225241850   11.02777486602038
C         3.55814092910512    1.95376922377180   12.64057018879360
H         3.18087783843405    2.63509761107425   13.39889000185828
H         4.43918682129943    1.44921396170964   13.03671004597209
H         2.80287965650547    1.19463838157858   12.44281878727065
C         5.05651452315050    1.78402589247581    7.90594415620436
H         5.61390039730928    0.92340155284461    8.26937861879881
H         5.69195423475738    2.32599525423706    7.20932769322098
H         4.18172016373831    1.41461118596049    7.36965055606462
C         3.09047555836627    3.95519790989866    6.56101895522341
H         2.64035349412728    3.79730303899562    7.53800225049188
H         3.06709757977084    3.02056748882954    6.00295293391501
H         2.49840197817407    4.68840031144602    6.01295135917641
C         9.89907934863717    6.13998289981184    4.61958949491681
H         9.66992727005957    6.86392139180353    3.83777061002508
H        10.18969104528744    5.20815633758027    4.13507488417054
H        10.73809966683937    6.50592505273361    5.20574386136302
C         9.78874698108483    6.75047771568925    7.39381874626443
C        10.76929438404361    5.99093124845034    8.04014023091399
C        11.83077422356862    6.64108548469301    8.65512349997008
H        12.57871662586662    6.04260202696812    9.15500932515745
C        11.95270932699026    8.01949156621521    8.64543534892788
C        11.00152909344941    8.75384131736874    7.95075185628374
H        11.09840054793361    9.82924913259078    7.89889294419227
C         9.94005201212520    8.14383890372607    7.30514949889707
C        10.72498372879151    4.49609978889425    8.07226897554365
H        11.73376416129736    4.08956593375300    8.03322947850884
H        10.14493998984396    4.09329451040498    7.24557546506619
H        10.25792255225993    4.16204236989520    8.99819483093864
C        13.07459119192681    8.70954177948295    9.35924430930637
H        12.70764604693267    9.14644769027167   10.28836172980145
H        13.48363405404972    9.51412668399877    8.75119907736582
H        13.86978181592388    8.00893787149703    9.60068006909837
C         8.99965690134836    8.96904835169886    6.47996564936632
H         9.16475208471982   10.02956579735060    6.65526141571898
H         7.96660368172683    8.72495231333965    6.71773248951745
H         9.16008180853783    8.77732637553857    5.41814112654634
C         7.66087389163807    3.81921212774491    8.33679181807953
C         7.97819412821174    2.81293945832872    8.93527113923971
C         8.38579111268106    1.64362996998451    9.62186165535925
C         7.70930456892023    1.24345304285518   10.77704835124513
H         6.87230667705536    1.83151657494651   11.12731858954060
C         8.10426567324527    0.10949240197331   11.45792001765505
H         7.57558808728971   -0.19303603942809   12.35192380338647
C         9.17562245068137   -0.64299353302128   11.00233229881041
H         9.48212552890661   -1.53018240104167   11.53772884393613
C         9.85205337231467   -0.25227593521922    9.85763848126245
H        10.68859405744628   -0.83739536514341    9.50085845614854
C         9.46411842497359    0.88089292155677    9.17010199487710
H         9.99115050040557    1.18816213479571    8.27748053952190
C         6.04254983759270    7.44475089466602    7.48737181533757
C         6.24243088117594    8.34703580817655    8.47998625608491
C         7.16677882703155    7.99445305524935    9.55561618843617
C         7.51634100536057    6.69095013105168    9.72489492377781
C         5.11247950510992    7.67776305022173    6.38308125329621
C         3.73196682134819    7.56367314320327    6.56412630752588
H         3.33516944048138    7.38967284707349    7.55386982496577
C         2.86270769612834    7.67080901948756    5.49515743982719
H         1.79841101379678    7.57611991788828    5.66271083024230
C         3.34389317947300    7.90182548339844    4.21880332919826
H         2.66354500432421    7.98063198894929    3.38359407484966
C         4.70885898959347    8.04014671614079    4.02425356065031
H         5.09696360105860    8.23363320121528    3.03388495073120
C         5.57962329738825    7.92836938528045    5.08760121252689
H         6.64250871689078    8.03499077770512    4.91561011351690
C         5.55115348766141    9.65258856331693    8.53607607333294
C         4.91628431527759   10.04311697171927    9.71345608127992
H         4.94944965474644    9.39353480057983   10.57632886892201
C         4.23882991824936   11.24448794028799    9.78469362112109
H         3.75133271722999   11.53150835643374   10.70560603661046
C         4.18159761063287   12.07892699448264    8.68095797061834
H         3.65284892924577   13.01933447039757    8.73695213995292
C         4.80614854409480   11.69986329788722    7.50554258525878
H         4.76773812242541   12.34580879112165    6.63981239674810
C         5.48427762651618   10.49750849124121    7.43236162981497
H         5.97449671417657   10.21958689862569    6.51096911261571
C         7.66966933703812    9.06507549846148   10.43445099959690
C         7.59930429715829    8.92501579304692   11.81935873152331
H         7.19309284171662    8.01679364958724   12.24116895795470
C         8.03652845259503    9.93760507233035   12.65049577970559
H         7.97251065860345    9.81731006069864   13.72237354184074
C         8.55237879283316   11.10605303057627   12.11405846010243
H         8.89465470106105   11.89715448582278   12.76513824434099
C         8.62130237101967   11.25653478399793   10.73978768978645
H         9.01839764643951   12.16756539996711   10.31538476530103
C         8.17746882847727   10.24772478572512    9.90582305749580
H         8.23102698762003   10.37057808118638    8.83584657612278
C         8.48481099516250    6.16288915365756   10.67543714711207
C         8.22995633463953    4.94117634947838   11.30572877474351
H         7.30357516707757    4.42259016807699   11.09973931205506
C         9.14453897714970    4.39641375997498   12.18491342872238
H         8.93587612402884    3.44642196347003   12.65552644990720
C        10.33073292130593    5.05948378963257   12.45526926441774
H        11.04954621643926    4.62890300736277   13.13704695255474
C        10.58966064733366    6.27651605510569   11.84570054582693
H        11.51282467043197    6.79830749715905   12.05264082095946
C         9.67948102610155    6.82553809212413   10.96468566391338
H         9.89528664212072    7.76484789519020   10.48054328352450
H         6.80272900773159    5.89096649131536    9.31237258800430

