32
CSD_code = DAMCOJ | q = 0 | S = 0 | Stoichiometry = C11H16B4Fe | MND = 11
Fe        1.63808811255792    0.33667295482442    2.98636970972108
C         3.14987107828450    0.24937379801735    4.04029188013990
C         2.03733066676304   -0.49999262587429    4.59550298875803
C         4.34331937690301   -0.50184682167250    3.61167384405582
C         4.67045343442951   -0.14005587774022    2.16852855979548
C         3.79845225072840   -0.92669875386014    1.19848762560615
C         2.38912834482886   -0.51390625480175    1.37887838769644
C         1.49288162055541   -1.35746732887623    2.03390633835297
C         0.23892085988384   -0.88155102948682    2.41204269097248
C        -0.12114289946203    0.43868968145295    2.14748773404312
C         0.79433951949216    1.30408665879422    1.54975735889070
C         2.04399074261803    0.82778953411895    1.16367521618539
B         0.75374521102015    0.32946110646207    4.65351606561110
B         1.17950815504961    1.80434420418101    4.06564028054165
B         2.73836538787678    1.69342758806515    3.63388423066260
B         2.23518664363830    1.09858804540216    5.20577608407817
H         5.20748641718292   -0.28951643182240    4.24623510971614
H         4.13220870645608   -1.57278359880586    3.67205689495764
H         5.72171857951218   -0.33587217881933    1.95103694716106
H         4.46867026094960    0.91840792722985    2.03472918515611
H         3.90346733752097   -1.99479680766596    1.39139537873772
H         4.13004208008252   -0.73336838741536    0.17646667456281
H         1.82499824090364   -2.30511689492156    2.40168214855034
H        -0.37539610015198   -1.48289429804645    3.04487534048671
H        -1.01561783577994    0.83520486000033    2.57321120319013
H         0.60691964393569    2.35250060738678    1.52805003398688
H         2.77863015295667    1.52324556363772    0.82410486327643
H         2.14795376195073   -1.55285211967567    4.74962371958422
H        -0.26450174693323   -0.12562215670611    4.97757644526106
H         0.45646559618420    2.68552794965938    3.83848799400808
H         3.42143556143215    2.43093105811124    3.05375122439414
H         2.64018083863036    1.30689002884702    6.29529784185935

