78
CSD_code = DAMFOO | q = 0 | S = 0 | Stoichiometry = C32H40ClIrN2O2 | MND = 6
Ir       10.63111848490857    7.17908469225587    2.58344910782328
O         5.40572646978465    7.03211484020764    2.41435960901445
C         8.83111471459776    6.53335180769297    3.09045336140198
N         7.66244121421323    6.89059226157905    2.48302567482459
Cl        9.98319135346708    9.03232415203331    3.90221253112858
C         6.40611188161271    6.87115701225684    3.07045701458645
N         8.70576513671175    5.92954337448880    4.31125233846429
O         7.46272034045444    5.06228412898378    5.99004922406925
C         6.40858461260620    6.69785651757356    4.57361370343723
C         7.53476616075687    5.79973100552333    5.03631386092348
C         6.67541503092580    8.09334582768387    5.17890322626730
H         7.63180332536468    8.49525998377707    4.84870617439207
H         6.67979047514268    8.02247189519702    6.26425318572755
H         5.88415916655615    8.77581798169587    4.87687974878251
C         5.06072483941860    6.15942821369745    5.05180951026771
H         4.87488366159346    5.17469934357605    4.62817011202934
H         4.26423595697195    6.82714190914441    4.73607482683450
H         5.06098226585048    6.07484368515277    6.13475125090655
C        10.99957287375376    6.21599677475775    0.71084950567099
H        10.08811726774081    5.82505337934127    0.26905280312484
C        11.72446014229181    7.14464060679164   -0.23488794768493
H        10.97033528770582    7.76829378181867   -0.72024341441192
H        12.20982727444071    6.55302467048780   -1.01871153002381
C        12.75628666077577    8.04977850489897    0.45931492169445
H        13.73227993443049    7.56394587603701    0.49342063390967
H        12.87133187794377    8.96376269012229   -0.12624925874527
C        12.33149911116258    8.41567611983553    1.86059738529882
H        12.00865741844800    9.44607425459252    1.98135884788182
C        12.70307041911063    7.72576968838645    2.98924758723152
H        12.68290554885226    8.25471331495032    3.93984786255913
C        13.52904913565467    6.46499072508632    3.02364978374440
H        13.43092476351052    6.03089579774575    4.02097200609861
H        14.58441327509776    6.72028217233959    2.87983199925891
C        13.08980547500022    5.41678572013445    1.98694371144999
H        13.62627236705791    5.55530563859956    1.04712702927696
H        13.35269936251663    4.42747620868391    2.36585625561782
C        11.59876851720459    5.45545580674584    1.72358184088828
H        11.09342131258771    4.53910830152041    2.00384163909141
C         7.69380022986308    7.24049978714910    1.08265804117985
C         7.64452307426953    6.22481150772840    0.12718631553704
C         7.74395592691805    6.56786968296930   -1.21327306599751
H         7.72192280736160    5.78419429787268   -1.95719107400817
C         7.85486332418017    7.88988831408393   -1.61804370932599
C         7.78985721749208    8.88066931337743   -0.65210694715421
H         7.80643431166260    9.91763877387031   -0.95500492842122
C         7.68048534970642    8.58270915081917    0.69964951769240
C         7.48923820430491    9.67939555525227    1.69413633504421
H         6.52145510367464    9.56454271024014    2.18073517993993
H         7.51665145009835   10.64842911755207    1.20385077287059
H         8.25573397594840    9.65635211909709    2.46465655982497
C         7.99082007948839    8.22528473502895   -3.07191157072909
H         7.12133482820541    7.87169408461137   -3.62438206566456
H         8.87079532758779    7.74031052804649   -3.49278084237443
H         8.08061204026241    9.29842490221657   -3.21769219744025
C         7.45290544803189    4.78239891077842    0.49480504864549
H         6.81999516942405    4.29992979912125   -0.24674629839912
H         6.97438285789343    4.67945412674814    1.46529737841292
H         8.40439073850496    4.24994871086822    0.51189016432893
C         9.87356948175083    5.26723994174878    4.84307148540847
C        10.19741818817624    3.99896517700088    4.35415082526509
C        11.35537227049442    3.38652161892173    4.80171706924053
H        11.62080539361400    2.41230382545179    4.41640379732219
C        12.17082485470304    3.99045579719387    5.74984349406136
C        11.75906565399201    5.19070313660791    6.30455007700059
H        12.34491874388053    5.63655639743817    7.09573820973689
C        10.59787050861447    5.83429154977096    5.89275105996478
C        10.12265939468136    7.05225157211663    6.61407123566105
H        10.83342687319736    7.34237255389766    7.38303884580096
H         9.16554674312855    6.84042029371239    7.08899740405406
H         9.98207172443209    7.88949228334973    5.93467096631723
C        13.44351410705739    3.32826130371678    6.18238760018198
H        13.25641982353689    2.29673036265847    6.47564816304781
H        13.89172329320011    3.85404687775475    7.02130785376722
H        14.16007776307606    3.31464673188105    5.36086516439315
C         9.26743869055242    3.28171693761874    3.42337244975278
H         8.93796546161984    3.92947469979814    2.61583281465539
H         8.38479004779881    2.96231430223256    3.97890462426539
H         9.74293040139598    2.39910984430352    3.00290812332632

