78
CSD_code = DAMFAA | q = 0 | S = 0 | Stoichiometry = C32H40Cl2N2ORu | MND = 5
Ru       -0.50307154503215   14.24435934129091    7.56362563254129
Cl       -1.90673717982059   14.98736177932419    5.89105436036900
O         1.02865335986940   13.87432282989654    5.87413958546335
N        -1.90751821967588   15.99073731290421    9.27703087775695
C        -1.88484163116790   14.68310109588345    8.97509539666492
Cl        1.34351882964808   14.03346934621661    8.93042945183016
N        -2.81285913752618   13.91962305112138    9.54530287688539
C        -3.83765528253625   14.42239884343699   10.45417273110565
H        -4.71210750347208   13.77261157658468   10.37409285251089
H        -3.47659597810425   14.36824506376829   11.48956695254696
C        -4.17965567895225   15.85905446937795   10.10033932856881
H        -4.90497296269428   16.27069971224120   10.80151069284459
H        -4.59810495465583   15.90038367553626    9.09310445056039
C        -2.87752752789531   16.63771287884196   10.14596822169101
H        -2.49408064742890   16.67626836283543   11.17432862198877
H        -3.01575006743388   17.66510371430580    9.79998599404800
C        -0.84641734140805   16.85067007111467    8.84324744455352
C        -1.05953021657861   17.74288916527210    7.78412524252037
C        -0.03139003535511   18.60897706776207    7.42990836541785
H        -0.18580134083950   19.28382204524461    6.59958396204365
C         1.17080854345994   18.63383923542305    8.11897633628237
C         1.31579502064583   17.81525521408600    9.23084171668664
H         2.22260795670016   17.86832207923463    9.81580670890845
C         0.31515405443203   16.94065793183420    9.62699645396195
C         0.44930852703526   16.21221330593278   10.93092864935194
H         1.47466745891618   15.88481037127938   11.07609260128330
H        -0.19113983856709   15.33592214737271   10.97418982802606
H         0.18505045991276   16.89044313545358   11.74543523424493
C         2.27333546529567   19.56533524675683    7.71686187113970
H         3.23535104787284   19.05863548567795    7.75860848628925
H         2.31410585915779   20.41483360566130    8.39908284498792
H         2.11594482350814   19.94395305003350    6.70995826445261
C        -2.38121650919155   17.85752420242416    7.08559254926401
H        -2.23624333096759   17.97214099439028    6.01407473620336
H        -2.90811201555766   18.74136944922051    7.45115095570135
H        -3.00121142829172   16.98068494867827    7.24466309252742
C        -2.89020924879031   12.50614358053541    9.36479744469671
C        -3.79247089996119   11.98917149674461    8.43441945351196
C        -3.91675320945250   10.61095939169972    8.32945008410869
H        -4.60376879157557   10.19936773053131    7.60393350674451
C        -3.16791086239630    9.75439585863934    9.12312673462359
C        -2.26926965851577   10.29763364840288   10.03175526557596
H        -1.66888612969881    9.63707914863994   10.64055390457255
C        -2.11514943623689   11.66903163658950   10.16853762768487
C        -1.09459650661343   12.23910141756079   11.10170571634060
H        -0.62681051231294   11.45301552510265   11.68737789616740
H        -1.53627570523079   12.96454395963861   11.78258922182679
H        -0.32179080422911   12.74431578930309   10.51880140679404
C        -3.32022555840636    8.26746465911078    9.00968128109729
H        -3.82539359448120    7.99668202234930    8.08594743178264
H        -3.90872399542359    7.88757446218926    9.84518090508274
H        -2.34857227987828    7.77832123092606    9.03784305383642
C        -4.55483785343793   12.90388011680107    7.52773608002512
H        -5.09006442994618   12.33460551895544    6.77308433680578
H        -3.86100025257192   13.58058711314360    7.02756222996726
H        -5.27666305568474   13.50429419118388    8.08043611131656
C        -0.69760962515794   12.38041200620157    7.23351027838663
H        -1.38689444367231   11.68814068938075    7.71050566107349
C         0.15171239871693   11.76612477096460    6.28126590643863
C         0.12028071229809   10.38442952614021    6.02794203539946
H        -0.58454171436471    9.77831534275042    6.57859487086886
C         0.96917835791857    9.81528209217119    5.10499105718255
H         0.93631405945425    8.75198500593539    4.92065254000298
C         1.87079872399977   10.60940263882562    4.41065871172686
H         2.53942761832221   10.16398460039080    3.68924760698994
C         1.92643916603977   11.97829377345969    4.62698525859057
H         2.63989913502921   12.56660731469938    4.07093069512775
C         1.07632986010259   12.56219369373155    5.55260818326732
C         1.78159185550606   14.84161409154515    5.15118160697084
H         2.81491713704004   14.48167462061399    5.03807234445129
C         1.13896650596877   15.09915480768388    3.78916561232952
H         1.14151275572076   14.19977154042037    3.17740209049286
H         1.67727629008178   15.88432927212871    3.26504286206962
H         0.10533388780540   15.40989864285365    3.93392867979253
C         1.76887398799744   16.09486915183282    6.01499207250970
H         2.21622026346299   15.88811845358894    6.98737901865794
H         0.73513563025864   16.41804466809030    6.15818819264194
H         2.31994918900883   16.90023299213021    5.53786165125133

