57
CSD_code = DAMHUW | q = 0 | S = 0 | Stoichiometry = C24H25Cl2NO3PRe | MND = 6
Re        0.26317506921630    3.03627336739338    9.13903167017989
Cl        0.69896524845011    4.52740492444056    7.39119918768032
Cl        2.48118756172078    2.59396090424093    9.40940621126886
P        -0.09188254907192    1.07277233065744   10.64222592266198
N        -1.84753045824818    3.29549491613314    8.48940275569761
O         0.13751675262248    4.18170985542749   10.33217467227460
O        -0.00922869789875    1.69981957261455    7.81093047927756
O        -3.24852224220407    2.86526051865765    6.82637866696058
C        -1.02680219063364    1.71743880836167    6.89814874891376
H        -1.44056928604880    0.70959011192159    6.72278053788761
H        -0.67503366932707    2.11561273711718    5.92848322777440
C        -2.08368602503506    2.64834334717630    7.41911052708936
C        -3.91954183821798    3.86819050126012    7.60683004404314
H        -4.84807168485406    3.43631361146462    7.98998889627792
H        -4.15039834281214    4.71037298767354    6.95170168936467
C        -2.92298173765640    4.24362531965506    8.73925760937954
C        -1.83359892550242    0.88985538395097   11.11279358796055
C        -2.74019974166176    0.46594658215603   10.14172486294262
H        -2.37730761184130    0.20532582573071    9.15634916980152
C        -4.08554969426468    0.36590429200850   10.44038052054136
H        -4.78249673055495    0.02667784390024    9.68734805942288
C        -4.54014706171246    0.70176879726243   11.70754874885989
H        -5.59126897431675    0.62223894389553   11.94156646520507
C        -3.64610928747474    1.14332407200982   12.66909468583740
H        -4.00160429604992    1.41066683283448   13.65292051150467
C        -2.29696901046623    1.24211929070715   12.37554904301141
H        -1.59807539261440    1.58624549565589   13.12407057092289
C         0.80935231061502    1.14041827818359   12.21917107439158
C         1.23556244698198    2.37563936413442   12.69752397627536
H         1.04198093964562    3.26802517604438   12.11364263025976
C         1.91342380953813    2.45038786974440   13.90107475903296
H         2.24799121619823    3.40808198264692   14.26969965092509
C         2.17142475748296    1.29774678482933   14.62551410091547
H         2.70719757812090    1.35639085673981   15.56130450501165
C         1.75138371371281    0.06681579395967   14.14719464497155
H         1.95851184563318   -0.83177179443002   14.70962683443480
C         1.07154087518744   -0.01701497178657   12.94584363087590
H         0.75041691250715   -0.97804109956258   12.56915708049199
C         0.34433290769877   -0.54809786437819    9.94630000377805
C        -0.41123717855235   -1.68575653313181   10.22208076183132
H        -1.29149155942224   -1.61885648209662   10.84692684619418
C        -0.03530282333520   -2.90796118119808    9.69439000078569
H        -0.62487936564001   -3.78715992043765    9.91074445458930
C         1.09060912986265   -3.00538900280376    8.89275466165862
H         1.37584091179369   -3.96143103316053    8.47908039887917
C         1.84888697450135   -1.87711647524278    8.62629557447618
H         2.72943928526805   -1.95055585418907    8.00596268548936
C         1.48279464104111   -0.65088024993400    9.15214072479334
H         2.07363291552485    0.23155626822077    8.95002130978435
C        -2.36371638080504    5.65726538331265    8.59101775913015
H        -1.55041544424715    5.78638283576683    9.30360935129747
H        -3.13897735785917    6.39375612146658    8.78487443861734
H        -1.95625531410763    5.80609855757977    7.59394990638399
C        -3.48444951690625    4.03579547831511   10.14153300471433
H        -3.92548556191338    3.04762253880742   10.24523295016932
H        -4.23778212947124    4.78838244781970   10.35739643534371
H        -2.66929972243639    4.12910955071668   10.85563877185061

