46
CSD_code = DAMJOS | q = 0 | S = 0 | Stoichiometry = C17H21ClN4O2Zn | MND = 4
Zn        6.24644517839740    3.55405564443108    3.85086355408661
Cl        5.72855708740699    5.33959359047497    2.66233865335587
O         6.31015089850211    4.03927429902693    5.81386386056168
O         4.52719859059928    3.11668975087281    4.97483940804023
N         8.27891922736332    3.48170592161136    3.13690210556144
N         8.93545824301656    5.04984532795824    1.50646031777006
N         9.13633980595611    5.51571061540891    3.76450463116728
N         6.32407604686801    1.62750120346822    3.06462743159317
C         8.76574290860323    4.66682070123204    2.79384205292407
C         8.23191975801963    4.38959214581268    0.43142989229138
H         8.87458987861165    3.65845399608977   -0.06811903255446
H         7.89950607383171    5.13163536443516   -0.29180236771822
H         7.34743638321709    3.88290075686057    0.81514571250673
C         9.41887681811348    6.39830598789997    1.28525750187217
H         9.28025530965059    6.65819747100709    0.23690352828549
H        10.49039346570483    6.44002608099675    1.51651455475498
C         8.64764257302353    7.33562975379209    2.20799868464887
H         8.88416993560215    8.37963044913607    2.01058305731080
H         7.57914598641499    7.16660554467351    2.05859284089320
C         9.02827697103585    6.95824904054874    3.62966834729321
H         9.99459696599694    7.39965221401347    3.90663818891642
H         8.26986451994018    7.31655657654516    4.33347958385042
C         9.24530917207406    5.05066931995063    5.12914521310416
H         8.30053651587858    5.14222130612291    5.66664195599781
H        10.00828096591644    5.64592517442580    5.63252797823436
H         9.53931075645191    4.00425100475882    5.13011697150140
C         8.51600545496319    2.32489044193106    2.46298343516869
C         9.72070868284189    2.01805408621230    1.84272479913775
H        10.50552649881476    2.76043923397565    1.82752963005083
C         9.93948779709035    0.76628624423533    1.26947350952249
H        10.89309071683626    0.56855285462107    0.80147151957746
C         8.97589986291152   -0.20969271558379    1.29237297559235
H         9.15053022858945   -1.17665840069618    0.84619421445938
C         7.73620175804703    0.04941595193675    1.90435336077507
C         7.50187911546249    1.32118357755422    2.49128189712107
C         6.68498012332197   -0.88896896896695    1.96568084318424
H         6.83092875898224   -1.87013684441227    1.53632840686516
C         5.50211458065731   -0.54496772270625    2.56355847641415
H         4.68002394911971   -1.24055287025887    2.62417815551631
C         5.36103838001435    0.73980243894342    3.10554422734365
H         4.44644981449676    1.05306554057424    3.58721162182502
C         5.12114734248617    3.65124254612276    5.92887114928831
C         4.41007668190343    3.85297202853119    7.24844526264644
H         5.09960152471185    3.67304736637667    8.06817316071828
H         3.55143253712027    3.19194642267821    7.31141823791452
H         4.07087615543063    4.88547954737525    7.29984049063209

