26
CSD_code = DAMKUY | q = 0 | S = 0 | Stoichiometry = C12H4MoN2O7 | MND = 6
Mo        1.59224833154551   11.65946308750313    5.44989085852192
C         2.55311434757958    9.92105533993308    5.24323168842732
N         2.95459666982173    8.81862330148591    5.17854930276188
C         3.13943525977126    7.48481742377580    5.20372284477066
C         2.16695299494017    6.60829761158331    5.72425119933811
C         2.41869397843766    5.23969753148679    5.75787336182361
H         1.65617074014631    4.59257779791663    6.16462850989488
C         3.60706321749103    4.73129849532799    5.27605916046884
H         3.78745418241224    3.66867265979491    5.30117927155099
C         4.56752465525356    5.59302915651889    4.75851134605174
H         5.49829970936291    5.19876634900358    4.38111419253815
C         4.34098937721339    6.95292814097067    4.72595461069118
H         5.08295711786739    7.63091286013521    4.33315727480094
N         0.90212756885917    7.07040087211785    6.23310693973394
O         0.53046367355038    8.19382789358860    5.94771047629796
O         0.27089600099758    6.29720455599387    6.92047866650109
C         3.13103770073923   12.53982810747550    6.32259621414508
C         2.22645120559413   12.33384631350743    3.70418104348424
C         0.51634578880158   13.29422909502700    5.70789645755954
C         0.04497519641421   10.77127455056441    4.58993643456594
C         0.95693054616252   10.94592363512226    7.18190827570932
O         4.00927216473781   13.07123400887842    6.81542119426744
O         2.59389738202395   12.73787956459936    2.70514237358455
O        -0.10964627620959   14.23166689186431    5.86452509281324
O        -0.83786611894736   10.24679948393762    4.10877637903445
O         0.59581458545698   10.50144527179916    8.16209683069861

