65
CSD_code = DAMKEJ | q = 0 | S = 0 | Stoichiometry = C24H32N4O4Zn | MND = 4
Zn        3.40252333065669    7.46301185673779    1.27546994239103
O         2.31547960052302    7.35930572437062    2.99993273732870
O         3.22892340260577    5.59179326265378    2.11258059056585
O         4.98848038194406    7.28547089776588   -0.11031303896316
O         5.30007759954456    7.83023688771361    1.97838641447917
N         3.03083376956140    9.44404494164405    0.63695717533965
N         4.35061088750089   10.69837504868670    2.03405633785947
N         4.67160530330104   10.87658379064367   -0.26075721556224
N         1.96462076152309    7.09735753313755   -0.15800124792056
C         3.99397285725491   10.32873808790225    0.78997773044989
C         5.73912456840832   10.84601448000293    2.43013892155691
H         6.35755228905185   11.01051035978792    1.54979661200271
H         6.05225605172677    9.90163833196891    2.89502734470957
C         5.88676702329386   11.98206280565312    3.43720941194317
H         5.59118061427969   12.92875041081747    2.97800787155340
H         6.93212906849626   12.06543612023797    3.73852967245086
C         5.00103426538438   11.70230236514888    4.64755923099028
H         5.35462009699135   10.80103113354077    5.15140621782615
H         5.05482495566358   12.53108306179862    5.35604238533234
C         3.56278770241661   11.48957924954610    4.18557796209445
H         2.92579328978962   11.23526262390152    5.03262699641020
H         3.18300452084862   12.41213366747730    3.73947816252362
C         3.49413018067864   10.36301276655523    3.15671905098655
H         3.81490923417737    9.41693043426772    3.60260709770237
H         2.47582369185888   10.22935263946718    2.79506179633493
C         4.74615178462561   10.21246917465601   -1.54426236773859
H         4.03645355829203   10.66053193382649   -2.25538736642744
H         4.49548892205190    9.15965734904907   -1.41038402321705
C         6.16916381805753   10.32997241146229   -2.08958776293753
H         6.84904172269652    9.81124377343913   -1.41213160015983
H         6.21668613030551    9.83768398883915   -3.06117295042641
C         6.57966639582152   11.79396511326087   -2.20969270345903
H         5.92393590460225   12.29943463610386   -2.92269086611345
H         7.60301343020891   11.87157087562623   -2.58024718899212
C         6.46141832633796   12.46444870028562   -0.84442824513273
H         7.18667104497904   12.02026197424026   -0.16015792949027
H         6.67792830371537   13.53144606569794   -0.91895827552176
C         5.04489532649181   12.27574253652515   -0.30504377511528
H         4.93710446876243   12.71118132860698    0.68791021366061
H         4.34894044403016   12.79519465775782   -0.98350767862634
C         2.14902196343807    9.45327690018281   -0.40434988651447
C         1.69568912602336   10.60931518489458   -1.02421734746340
H         2.08346010885200   11.56622538310327   -0.70526075144886
C         0.72875988798540   10.56200609914269   -2.02956034920889
H         0.40910287234958   11.48698643955867   -2.48800798023595
C         0.18614806618160    9.37277117359293   -2.44039647853440
H        -0.55296120543187    9.33876021053247   -3.22639133532308
C         0.58773892027490    8.17339422199717   -1.82254358138000
C         1.56409520215459    8.21163894003988   -0.79257285745386
C         0.06912546999158    6.90876610515527   -2.17040332602102
H        -0.67589376880034    6.84223326174066   -2.95104939394324
C         0.51426904116822    5.79209065408484   -1.51575941482524
H         0.13988356628067    4.81069334286598   -1.76189741060491
C         1.47016638336556    5.93566978724814   -0.49934907136051
H         1.83928661434695    5.08287291562372    0.05163624612332
C         2.58540075295118    6.13795695284634    3.03290864223478
C         2.12429605945181    5.30711869481309    4.21295347193857
H         1.89268274727410    4.29772428335804    3.88674800938970
H         1.26091884312861    5.77218247138579    4.67846528335666
H         2.93620755159820    5.26114675777530    4.93533281608274
C         5.74652357377959    7.52670654620858    0.84859707820277
C         7.24980215652644    7.47416675688191    0.64825777018695
H         7.71750837198182    8.34290330792103    1.10470282379724
H         7.48339946325735    7.41996328071306   -0.41070267450950
H         7.62664320340935    6.58320732753423    1.14502407682544

