26
CSD_code = DAMKIM | q = 0 | S = 0 | Stoichiometry = C12H4CrN2O7 | MND = 6
Cr        1.20747007463805   15.37931262909609    5.77358742906439
C         2.15557558651122   17.01722653747905    5.53110267953430
C         2.74802617859103   19.44153077354605    5.53695854645452
C         1.75312281563116   20.25854856861054    6.11564664039316
C         1.96935967647064   21.62961706659600    6.23440414218201
H         1.19388359722588   22.22780380439787    6.68879542694882
C         3.13583131648153   22.19969724497187    5.77195108024704
H         3.28810213779323   23.26329238189882    5.86098935475727
C         4.11346216762613   21.39877164549699    5.18799592497245
H         5.02642114041456   21.84409687102872    4.82399015559159
C         3.92714990636267   20.03843504766352    5.07672949032562
H         4.68427998806572   19.40736433288926    4.63756242655945
C         0.66536230595438   16.10264942100439    7.42148718133039
C        -0.28581865724695   16.17843691511806    4.94315852656761
C         1.76484053925884   14.64318098407447    4.13752899804377
C         2.65572582323395   14.50089315403631    6.58359098326169
C         0.17176687097221   13.85419554123401    6.11351838358576
N         2.60486976870991   18.10631212566642    5.45722025396955
N         0.50794673425052   19.73301457873030    6.58961002991805
O        -1.20204760010443   16.63262660598486    4.44088992103195
O         2.10445478946919   14.13732638478082    3.16769483686071
O        -0.45309707259452   12.92089554349284    6.33984220735668
O         3.50719788993687   13.90003814435251    7.05985980264198
O         0.35254962554618   16.53866290004257    8.42929102220745
O         0.12887065551998   18.64936488015355    6.16912276399335
O        -0.11590625866809   20.41110591766358    7.38047179218897

