58
CSD_code = DAMLOU | q = 0 | S = 0 | Stoichiometry = C19H28N4O6Zn | MND = 4
Zn       -1.76450856658984   -2.29025135966111   -2.43741158324529
O         0.62736009743409    2.89882732784082    0.69509659459292
O        -5.88868392445570   -0.33998722470959    0.66297630036306
O        -2.12941945580542   -3.67863174845441   -3.91337912015783
O        -2.72372841109428   -3.97317787847297   -1.84016953794866
O        -1.14604886508039   -0.43874586537198   -3.44845752229831
O        -3.20926816534236   -0.98450920520429   -2.99711986906903
N        -1.23976634847669   -1.43833344228972   -0.60422356117959
N        -1.14047528270109    0.85128814346099   -0.06221126486046
N        -3.15561393981463   -0.32700810792474   -0.04059978041315
N         0.30206725360138   -2.64511836039452   -2.52052538306707
C        -1.82452750548774   -0.32125865579742   -0.29642609501138
C        -0.20428281004512    1.40015298823441   -1.02483382559288
H        -0.69426170917766    2.22377040388254   -1.56600669136160
H         0.07624610225683    0.63982117567497   -1.75228370212067
C         1.01340457393247    1.96529262419007   -0.29015094497178
H         1.58552239194992    1.15095757682787    0.18155256228154
H         1.66293661361075    2.50343761260828   -0.98165233678071
C        -0.26722398574835    2.32773861369717    1.62072324655569
H        -0.50197111119417    3.11374373028650    2.34019847207786
H         0.21525967395254    1.48677454961308    2.14272413157806
C        -1.54099360773556    1.83111823427746    0.92311478722261
H        -2.21428573010787    1.36965556854377    1.64497489739702
H        -2.03323680710907    2.69894384227237    0.46087411815142
C        -4.05544005186547    0.70029331738188   -0.53377552451503
H        -4.46492905282820    0.36430925264092   -1.49601453153578
H        -3.53171389620702    1.64240410940443   -0.68177585466855
C        -5.20157130568198    0.86976352923330    0.46656975944077
H        -4.80228670307875    1.23566373150185    1.42748704063110
H        -5.93797041660380    1.58216714454865    0.09033438254183
C        -5.01426950903481   -1.35858283430800    1.09647881662025
H        -5.62150084629265   -2.25963545277335    1.18618266639899
H        -4.60511494712054   -1.09504479923659    2.08560382611923
C        -3.86450069874466   -1.58633105286734    0.11234347086368
H        -3.17834973279585   -2.34243229759176    0.48715139628135
H        -4.25564954889000   -1.92345889453354   -0.85211015699269
C         0.16390688354052   -1.64628668360614   -0.33998681947152
H         0.21794955339547   -2.53464207750886    0.30864378485770
H         0.62058953901811   -0.80759740128240    0.19601140127571
C         0.95115669072835   -1.97748208517925   -1.57636257671317
C         2.29338122317187   -1.64320540494840   -1.71093863994604
H         2.79850935250203   -1.09474034310324   -0.93021766853141
C         2.96311197442700   -2.01620817375123   -2.86353522193068
H         4.00393941359772   -1.76073309502102   -2.99781677582910
C         2.27234852107077   -2.71475976414793   -3.84147434500419
H         2.75674556588369   -3.02051784359565   -4.75497278482353
C         0.93534919250245   -3.00228807242180   -3.62649721486497
H         0.33553193233283   -3.52838519243761   -4.35474413141374
C        -2.70663120078737   -4.35135943796526   -3.03311431452059
C        -3.37414099303726   -5.65683364279365   -3.41038388224281
H        -3.94846902162313   -5.52044978944352   -4.32209346542718
H        -4.01432106630701   -5.99192746815208   -2.60076958605757
H        -2.60345419507201   -6.40145456372552   -3.59713211056925
C        -2.36806967525451   -0.22604067369443   -3.53665407636169
C        -2.87020234897728    0.99685715532105   -4.28177263057569
H        -2.03241999100735    1.54363957057896   -4.70368030344361
H        -3.43068154846206    1.63504812263299   -3.60198633945706
H        -3.54013357327604    0.67345056771896   -5.07418148227136

