46
CSD_code = DAMLIO | q = 0 | S = 0 | Stoichiometry = C15H22Cl2N4O2Zn | MND = 4
Zn        5.05796328170802    2.64563244845991    3.93693395732932
Cl        3.17418916743982    3.07690105714749    2.92916232885104
Cl        6.93437269608660    1.72432453787627    3.07937271325285
O         9.76025571095232   -0.03380173138335    6.95253459857154
O         4.18116049409360   -1.77993870435953    3.32290510572433
N         5.18563019231830    1.91221938356909    5.85635538888365
N         7.04436675134455    0.66844068710742    6.60054299946635
N         5.24856896095763   -0.35023354803168    5.52539094972445
N         5.88840967764522    4.37984543199396    4.82997116263728
C         5.83566190631966    0.77950459349842    5.97587541075660
C         7.41968579949273   -0.41257674335971    7.49015013773010
H         6.64157891991279   -1.17391231375446    7.50108992029715
H         7.51636278145911    0.00666024690262    8.50273866103468
C         8.77376944022546   -1.02457333567148    7.10293630201393
H         9.12343991495462   -1.68732149225812    7.89682810845933
H         8.68364329570509   -1.60247523881590    6.17097952595753
C         9.37561333576868    0.91747492271333    5.98458626801488
H         9.20882222736986    0.43684127805711    5.01051820411967
H        10.20351455699026    1.62222523999375    5.90122738768524
C         8.09813006009706    1.64649266113091    6.41014748367575
H         8.29518004379253    2.19293318607808    7.34234102856115
H         7.80991497893206    2.33762261905778    5.62028566699594
C         5.98302219281134   -1.44632771419466    4.92428026232281
H         5.76282428211226   -2.37419588545727    5.46688584946114
H         7.04865840931385   -1.23335958582927    4.95726163573148
C         5.57064809377142   -1.60601354814868    3.45233254408414
H         5.89877727515795   -0.71879265647728    2.89367790631467
H         6.03714596043074   -2.49719464081611    3.02910065953133
C         3.50214908951714   -0.64961589679295    3.81434917578582
H         2.43679566691225   -0.83548569710592    3.67355899412284
H         3.79132177959757    0.24652458439703    3.24329621804765
C         3.81670610246336   -0.43974487792437    5.29788109222414
H         3.33603173343933    0.46546068256630    5.66407657704829
H         3.45262583137381   -1.31032253331180    5.85929351761595
C         5.44137222800238    3.00262594579685    6.76949717725352
H         6.02615754933155    2.68321853172829    7.63865037683880
H         4.45595111831370    3.33130541898248    7.13369294595697
C         6.07584589378964    4.21115216250563    6.13356522400795
C         6.78590364449515    5.13847435133679    6.88974426385072
H         6.92240974675029    4.97878565339183    7.94829120242489
C         7.30813638489930    6.25638860317113    6.26479447467301
H         7.86735740974973    6.98763849947057    6.82891763648131
C         7.10233313378571    6.41968801239012    4.90226934027149
H         7.49115047736718    7.27654506776594    4.37668068338891
C         6.38449297129459    5.45133404802467    4.22497852320127
H         6.19374883175575    5.52462628857994    3.16345040961575

