34
CSD_code = DAMLAF | q = 0 | S = 0 | Stoichiometry = C15H10N2O6W | MND = 6
W         1.64536733948888    6.00493286357862    2.52949607395518
C         1.25813831065997    7.87104813796286    3.56703447747914
C         0.57064981103742    9.97809901286430    4.02854903563686
C         0.91332902914997    9.35389670004497    5.23839767561309
C         0.79958808566212   10.02149045556437    6.44670347999773
H         1.06231648348832    9.54523563697752    7.37798950575979
C         0.32922218626504   11.32133266828800    6.40475511410631
H         0.22564078434313   11.87448700553607    7.32531530581920
C        -0.02304433827423   11.93383261273338    5.20334061172069
H        -0.39504528277245   12.94645036066790    5.22087589980964
C         0.08744205395046   11.27540806992413    3.99294152709091
H        -0.19774606869450   11.74127684315051    3.06403638345595
C         1.78643843422905    9.67273636886489    1.02606842941955
H         1.43546349673436    9.82462787986272    0.00385184289630
H         2.51969556586413    8.85783974667644    1.04798861442014
C         2.37653465028397   10.92397545003288    1.60212096280100
H         1.83702535622083   11.83968636796232    1.40463859791528
C         3.46244025109133   10.92008968609486    2.35310141787220
H         4.00440843449881   10.01008011386744    2.55851023822506
H         3.86432483333893   11.82271779317924    2.77977096508531
N         0.80313775041485    9.03214113315329    3.05374847431456
N         1.32427682519958    8.08407723632252    4.90150250347527
O         0.59446481036937    9.26017046817338    1.71962594591149
H         1.62646193285309    7.38306593018018    5.56106784338119
C         3.45103908325137    6.62246380832377    1.94653850915904
C         0.79560392160508    6.65133793231066    0.83541327526041
C         1.96155854838662    4.26708210706866    1.60688215741028
C        -0.15489190384839    5.38387903009861    3.14078481408355
C         2.48924562147355    5.24123355276339    4.16443274921919
O         4.50207276967468    6.94500419046380    1.62589112599148
O         0.33020335495717    6.88407386764813   -0.17970772613783
O         2.14555978833363    3.26496191737841    1.08914944261239
O        -1.17884585917046    5.01878392291992    3.49031427573247
O         2.97792393993825    4.73268112936228    5.06647045050887

