73
CSD_code = DAMVUJ | q = 0 | S = 0 | Stoichiometry = C32H36Cl2PdSe2 | MND = 4
Pd        0.00979542866999   -0.00367583917528   -0.00430561065624
Se       -0.20126904427163    1.53365821984910    1.76074869369538
Cl       -0.80062162541448   -1.92223374804677    0.97291196023443
C        -0.79023665254239    0.57915767996867    3.43594158226231
H        -1.75482744264260    1.02254162243174    3.68432989642475
H        -0.93404632723357   -0.46159450876101    3.14957993822316
C         1.69541214690635    1.56925489251382    2.14315945393904
C         2.53587258235490    0.56417917814309    1.67574705290747
H         2.15427606781770   -0.25152751730812    1.03828769098163
C         3.87768901590229    0.58883445021621    2.01353212168145
H         4.53186099797488   -0.19206398258605    1.65464837875279
C         4.37970615415040    1.60511162916805    2.80909059831164
H         5.42605819692618    1.61317390491118    3.07556507806966
C         3.54457581281466    2.61671126360607    3.25067449131672
H         3.93636291696303    3.41864526472904    3.85799757343209
C         2.20337705639859    2.60614535450575    2.91286193997327
H         1.55052190623090    3.40098428704455    3.24228696606205
C         0.21420380293496    0.75307014177529    4.51635431144519
C         1.19701912329497   -0.22057908741183    4.73112206559086
C         2.16795659217104    0.00226109515407    5.69556456992736
H         2.93033624960182   -0.74729872703793    5.85511527303139
C         2.19282581586792    1.16255994955714    6.45338661245920
C         1.20645671256464    2.11258451628745    6.23665699929081
H         1.21062434790273    3.02266318533021    6.82021887996750
C         0.22489702738556    1.92832106664538    5.27625080197984
C         1.21228061792334   -1.50657430269886    3.96188255973728
H         1.09519813271587   -1.34892976428588    2.89013729574161
H         0.39366166549908   -2.15012314825327    4.28636716875263
H         2.14630322093249   -2.03657892317538    4.13017574707573
C         3.24841208369031    1.37881046257081    7.49433940074096
H         4.15549435509425    0.83312773390375    7.24544821479191
H         2.89498632393404    1.02307286033567    8.46283700404248
H         3.48594135313731    2.43577883989649    7.59196166127317
C        -0.80454829713331    2.99618500552465    5.05176981553742
H        -0.55055886769764    3.89361379592355    5.61044625042687
H        -1.78765033443578    2.65888794720166    5.38130454090934
H        -0.87591166900178    3.25376157093821    3.99219601505070
Se        0.21489076503058   -1.54224672526653   -1.77072233028637
C         0.79816500248237   -0.59021759196745   -3.44944238819682
H         1.75821018906629   -1.03942032274695   -3.70491160346486
H         0.95042929062201    0.44945087022859   -3.16351123213387
C        -0.21469174917260   -0.75700860755788   -4.52317426113915
C        -1.19218262693798    0.22348503339058   -4.73104527236502
C        -2.17103548335617    0.00785620068142   -5.68909022747106
H        -2.92915507362019    0.76284095423902   -5.84330598818964
C        -2.20900737204085   -1.15186629277312   -6.44723569548518
C        -1.22790939114526   -2.10887175670820   -6.23732683747721
H        -1.24229585816890   -3.01863988830431   -6.82121954014471
C        -0.23865707073039   -1.93184489055810   -5.28343667439951
C         0.78502337938887   -3.00689291156674   -5.06666654359962
H         0.52046199875596   -3.90256162732068   -5.62335515038764
H         1.76792506085581   -2.67650157600181   -5.40383082966681
H         0.86285500759606   -3.26494647811325   -4.00767555024287
C        -3.27268380624864   -1.35994655785624   -7.48161990575956
H        -4.17365576767617   -0.80652469997290   -7.22763237717328
H        -2.92215277249993   -1.00774691389271   -8.45246638006130
H        -3.51967849123176   -2.41493269401592   -7.57714562851705
C        -1.19347419207755    1.50907325978085   -3.96106809400772
H        -1.07370443019436    1.34954258119752   -2.88986342238887
H        -0.37056916002025    2.14589983311780   -4.28804714861971
H        -2.12354178135456    2.04723110880399   -4.12548302976105
C        -1.68390248775288   -1.57374748569479   -2.14461174556670
C        -2.51971092592792   -0.56500111316322   -1.67668148465177
H        -2.13324215147658    0.25193232708926   -1.04381123217734
C        -3.86319831389589   -0.58738466734115   -2.00800233326245
H        -4.51362575305991    0.19642719378079   -1.64863285805191
C        -4.37164989938283   -1.60518553132316   -2.79745531797917
H        -5.41931938511035   -1.61160773276606   -3.05873780262186
C        -3.54112470728957   -2.62039772235217   -3.23943295521155
H        -3.93784203370920   -3.42366305810353   -3.84175494002551
C        -2.19825202294316   -2.61192284939819   -2.90827852572659
H        -1.54915228333941   -3.40971972475398   -3.23790260762963
Cl        0.82501884910912    1.91314368772746   -0.98201507946573

