36
CSD_code = DAMVOC | q = 0 | S = 0 | Stoichiometry = C14H18ClCuN2 | MND = 3
Cu       -0.13200584746905    1.68613245039226    2.76089030373404
Cl        0.91017623413484    2.51895013579047    4.54177912531889
N         0.97809489841599    1.83139845227261    1.13498104998199
C         1.52303025906077    3.01438405229807    0.81568190389401
C         0.97314276962991    4.22161838809336    1.49170487933673
C         2.56363887117785    3.10106733352199   -0.09863568845059
C         3.04959901129754    1.94781022695882   -0.69064305477856
C         2.47619886079354    0.73440901105607   -0.35067082436746
C         1.44058131169193    0.70982543847335    0.57210317850683
C         0.80646287749010   -0.57837697900205    0.98607763809090
N        -1.92458316880908    0.99655963399511    3.21553133477146
C        -2.99740903462675    1.62379076056289    2.72115891016556
C        -2.77844946839428    2.56724208919883    1.58318713476272
C        -4.26457173617496    1.41946322267086    3.24762566389894
C        -4.42102314825849    0.55154377908999    4.31482508049594
C        -3.30238363159125   -0.09004270263948    4.81843393124046
C        -2.06025213687822    0.15186713767909    4.24833806311212
C        -0.82419699887660   -0.50111878538228    4.76049428528084
H        -0.08086998244581    4.34696246694920    1.24730986398402
H         1.04474667051530    4.08460111543385    2.57311452924221
H         1.51745959178920    5.11658956283210    1.20513217471781
H         2.98631864708873    4.06383875824914   -0.33837265606427
H         3.85942129449405    1.99343977116448   -1.40311093699536
H         2.82693503390793   -0.18683163508942   -0.78869786870513
H         1.34579873221566   -0.98647371649359    1.84091440041839
H        -0.22508987024523   -0.40341921328189    1.29169296888951
H         0.83820198606729   -1.30758498190417    0.18006224741489
H        -2.59621777281511    3.56793779122510    1.97489995777880
H        -1.90043821981141    2.26392386916988    1.01288755674993
H        -3.64983414697095    2.60638840443321    0.93389864709264
H        -5.11090102717004    1.93922533858301    2.82673284001719
H        -5.39590081723493    0.37852167687602    4.74514640037440
H        -3.38584325797914   -0.77263294424538    5.64919679501014
H        -0.36582687789178   -1.10987070357564    3.98223570603409
H        -0.10436179436822    0.27249084314701    5.03759112552497
H        -1.03574811173990   -1.12283004854487    5.62540333351739

