87
CSD_code = DAMVOF | q = 0 | S = 0 | Stoichiometry = C48H36HgP2 | MND = 4
Hg       14.14103549228871    8.90601252707873   16.79806954150952
P        13.04208191887846    6.81771511832271   15.27218220467887
C        13.86608488076207    4.19618806338478   15.22633344166917
H        14.85212092258208    4.64285672113894   15.24344872669300
C        12.74474498973795    5.02323995782270   15.19282921633789
C        15.39739431954916    8.99540476227887   14.89440691102990
C        14.11899194880592    7.05210386458353   13.82214480351448
C        13.71751161966731    2.82404369484858   15.22929364154441
H        14.59090200964823    2.18838630883373   15.24462924993950
C         9.88106910078427    8.32352352284617   13.09565997117848
H         9.62777707089388    8.52774051512834   12.06513371675777
C        17.23385746713619    9.93087594614898   13.52942705372218
H        18.03205891136437   10.65699109403460   13.45946865125724
C        16.96465244320893    9.05849965283715   12.51676552731142
C        13.98296945672257    6.23091704876586   12.71860793319769
H        13.22817634799969    5.45470594369186   12.73272996995577
C        12.44872980222213    2.26493698179738   15.22286081797032
H        12.33102764489031    1.19104538349735   15.22623896308369
C        11.11414308868080    7.77502489841667   13.40196918185223
H        11.82217371793215    7.56116766138456   12.61409028102223
C        15.91463498428994    8.14033152306154   12.68636989588869
C         9.30277168923616    8.36378364753473   15.42403992853648
H         8.60153081369099    8.59899188969230   16.21165755222535
C        10.53448117503787    7.82051329226316   15.73591170095390
H        10.80795520989912    7.63257156801059   16.76785158928088
C        15.11844596750132    8.07063111678486   13.84347677665242
C        15.76342470618085    7.30818843957386   11.56503492866647
C        11.44400038549700    7.51200174545230   14.72566056904267
C        14.79052471145000    6.34754811515789   11.57614335454494
H        14.63394717240441    5.68134451615268   10.73980338884701
C        11.33204229844557    3.08362710172707   15.21681075166359
H        10.34271781649568    2.64854219424011   15.21767448963416
C        16.44214894449901    9.88169563933659   14.69756489174662
H        16.69031362653040   10.59353177177579   15.47869352255109
C         8.97428544744151    8.61474859418912   14.10131620193064
H         8.01437562178911    9.04464945922675   13.85467234730607
C        11.47441968279339    4.46034679237276   15.20614313969211
H        10.60069630827013    5.09742612424864   15.19776793011163
C        17.59062059680311    8.84662945391606   11.16584295410819
H        18.64799959793711    8.59231303646520   11.26399419129675
H        17.52755960354702    9.75423595985528   10.56217822227688
C        16.78585600180434    7.68583163108980   10.53094679032733
H        16.29961492496503    7.99609156800965    9.60375072281272
H        17.42744797755011    6.83488936263328   10.29327797544564
P        15.24008939307856    6.81765617085136   18.32380718447289
C        14.41620490391651    4.19610308544530   18.36954324208784
H        13.43014999866470    4.64273736804152   18.35264158773422
C        15.53751264144817    5.02319709700584   18.40296290510387
C        12.88492972343442    8.99554011728970   18.70195690978523
C        14.16319824741273    7.05195617773162   19.77387400097186
C        14.56482866880257    2.82396883935768   18.36692512614068
H        13.69146255562626    2.18827371770762   18.35180801671446
C        18.40072017867070    8.32388471873550   20.50053957367973
H        18.65383899808183    8.52822780642322   21.53108233194030
C        11.04909450400384    9.93146106543757   20.06748333151851
H        10.25113191402558   10.65781320559171   20.13770132985485
C        11.31825909502779    9.05889203846136   21.07998895304943
C        14.29921296895764    6.23061521436104   20.87729202196603
H        15.05386070827979    5.45427152486889   20.86298570136076
C        15.83363557022529    2.26492224712456   18.37363375701025
H        15.95138365589473    1.19103760443656   18.37027103992137
C        17.16773760672484    7.77525865208564   20.19410543616862
H        16.45969792973477    7.56121686122079   20.98192574939673
C        12.36797037994725    8.14043674255923   20.91005458200382
C        18.97920098983430    8.36431111468134   18.17220953193776
H        19.68045052113519    8.59969959038817   17.38465284040324
C        17.74758087982731    7.82090897392573   17.86021371928794
H        17.47427600204344    7.63283112404290   16.82825587523291
C        13.16393035240317    8.07066962061456   19.75279252244761
C        12.51914520123159    7.30809528146953   22.03124726954082
C        16.83801735954599    7.51225514654032   18.87037917657353
C        13.49180448579535    6.34721919424615   22.01985575604147
H        13.64832774055109    5.68083503576699   22.85606123601404
C        16.95029048119921    3.08365770343104   18.37950939957065
H        17.93963168821708    2.64861612999074   18.37838957215212
C        11.84046438558040    9.88210394467636   18.89912165701033
H        11.59237789044774   10.59414643183536   18.11815680200458
C        19.30754510744831    8.61527472380483   19.49496909046150
H        20.26728655868253    9.04550496106939   19.74169087982459
C        16.80785915484217    4.46037175163978   18.38979972532146
H        17.68154782511776    5.09750010099381   18.39798661216425
C        10.69253082650208    8.84705904075002   22.43102843829926
H         9.63501514775446    8.59322304429761   22.33311835730068
H        10.75615419529399    9.75454585649650   23.03481474796703
C        11.49697413817082    7.68583436387447   23.06555108589693
H        11.98342986324126    7.99567738026341   23.99277323988864
H        10.85512114535210    6.83504502083077   23.30306606399903

