39
CSD_code = DAMWEV | q = 0 | S = 0 | Stoichiometry = C12H22Cl2N2Ti | MND = 9
Ti        4.76976872959279    3.51146364866112    4.53701223976857
Cl        3.91751121475209    1.87742014313694    3.31411913227918
Cl        6.65161410713392    2.50994231659782    5.12547467930349
N         5.13879364074224    4.93798653946777    3.50143956652231
N         5.84836627379645    4.06372158513634    2.69411773923269
C         7.27863686882725    4.36169344051967    2.63389408043594
C         5.28810724396394    3.93530669404459    1.34956921902383
C         3.69407581876919    5.16037912511507    5.74521327978736
C         4.60984332668375    4.49034339531852    6.60410593027386
C         4.17768564874509    3.14080345923880    6.74265014256678
C         3.01644580868856    2.96770917983882    5.95078679580367
C         2.73078995408125    4.20600286429430    5.30941500578953
C         3.63112220347970    6.64359437751145    5.52139044133575
C         5.76167550344852    5.11010748598383    7.33936418404060
C         4.74349142310784    2.12441163850545    7.68837978523264
C         2.14528906456506    1.74784323255777    5.93937367406615
C         1.54900340357985    4.46262319370072    4.42053088383305
H         5.13344566468212    5.91421047713306    3.18007357716075
H         7.65281808717571    4.50383927898137    3.65089053963356
H         7.46203138463117    5.27330423167682    2.04580450516073
H         7.80651857241447    3.52525050960229    2.17698703529549
H         4.21086288337804    3.76907269548735    1.43056571274257
H         5.47459023965563    4.84643817356787    0.76167181199319
H         5.74013186034559    3.08173431269274    0.84548615900773
H         3.07377745870745    7.11012877482598    6.33742800659520
H         4.62622941760907    7.08560527644559    5.49935252488786
H         3.12319819925716    6.88336059389711    4.58894431852357
H         5.49333243396207    5.29542147693505    8.38207534206934
H         6.04854919351813    6.05817093012296    6.88641670094732
H         6.62658678829863    4.44485762472513    7.32224517692829
H         4.16876362974652    2.12331435523731    8.61821193637033
H         5.78202639753892    2.34702802533581    7.92593016251148
H         4.69732877332626    1.12274002550341    7.26002619261785
H         1.46750081942308    1.77240432632804    6.79676356259575
H         2.74223474963330    0.83845280328969    6.00476025111720
H         1.54854605071785    1.69971833883651    5.03043872317375
H         0.63659716219659    4.55870945278129    5.01361870488667
H         1.68238021448799    5.37949978384386    3.84785325887177
H         1.41502978533620    3.63578621312209    3.72041901761312

