86
CSD_code = DAMWOF | q = 0 | S = 0 | Stoichiometry = C39H41N5Ti | MND = 8
Ti       -1.13125896643597    6.55373174101750   10.30410357119434
N        -1.22798887160842    5.22768376771676   11.36285432139239
N        -1.26634587682984    4.59799580618294   12.52510294488140
C        -0.36521167479026    3.54190482794770   12.71380139538803
C         0.32431980324691    3.36637510852560   13.91668941979407
C         1.26029613940526    2.35825117699106   14.03433224497354
C         1.53285223897967    1.51842091706029   12.96463925219626
C         0.85688226636238    1.69512839342659   11.76664092441510
C        -0.08267210416854    2.69723882402144   11.63636988143768
C        -2.19819101627288    4.95966223583805   13.49193214083758
C        -2.57364114521967    4.09842355823239   14.52879302011634
C        -3.53556494661996    4.49250825496429   15.43658783716367
C        -4.14982318372842    5.73151083076855   15.33062685386567
C        -3.79610394111191    6.58029043660855   14.29167110988992
C        -2.83181478252083    6.20453500726550   13.38106412765506
N        -2.94635296944822    6.78910767062333    9.92072317528923
N        -4.02264857243425    6.01606385887244   10.35591712542708
C        -3.84105785894691    4.63333283666151   10.34865540425398
C        -4.21180505458902    3.83886350959975   11.43906680390608
C        -3.96619779353958    2.48063698427949   11.42558640748196
C        -3.35806882709105    1.88056199334911   10.33430711876332
C        -3.01725145069148    2.65516440605907    9.23599931690633
C        -3.26050691750667    4.01435613360225    9.23637380110384
C        -5.11854819836115    6.62072968922347   10.94493849374354
C        -6.34879388924752    5.95384201200716   11.03389589061311
C        -7.45279493806718    6.58942636652589   11.55941472056582
C        -7.37797525866615    7.90508456413355   11.99349545381344
C        -6.17459643926501    8.58075979655951   11.88749454475115
C        -5.05978096827843    7.95392995288715   11.36830064823083
N        -0.59338656166320    5.56880660078671    8.65351101970820
C        -1.13397570557885    5.86072573182493    7.46284576903811
C        -0.78561551744148    5.20966747613664    6.29577000697170
C         0.16709203722097    4.19786098104635    6.34486615352591
C         0.73686137493532    3.90049766073784    7.57905991715651
C         0.33745239484155    4.60845322699888    8.69537994667438
C        -0.47026078869908    8.70369006590934    9.67860227450567
C        -0.79391847023753    8.68576015268920   11.05829135390683
C         0.12414547626561    7.80239023995681   11.70881632492496
C         1.01287220231999    7.30042991621230   10.72551074971536
C         0.64898240862244    7.85666446538191    9.47395599096755
C        -1.07584262762039    9.61433130089975    8.64769393786279
C        -1.68987537514318    9.66562839629056   11.76400054667514
C         0.31395692366932    7.64030421703806   13.19064710610563
C         2.21181474447081    6.44791979152299   11.03459788081638
C         1.44262240782110    7.76637504453864    8.20167643913459
H        -3.31155339517165    7.59083424767189    9.39164218103002
H         0.13299913387927    4.03215346934788   14.74564063787574
H         1.79248386603277    2.23209393482726   14.96621791342561
H         2.26752270438693    0.73377678956804   13.06489999757677
H         1.05913817987485    1.03969975670687   10.93144577477725
H        -0.63804986196823    2.83769638575850   10.71858360801903
H        -2.13277055714602    3.11591758198984   14.60344271245604
H        -3.82098901741340    3.81800738024152   16.23131735030089
H        -4.90502376178178    6.02719885483341   16.04280141828597
H        -4.28492251002287    7.53890035078500   14.19086498654413
H        -2.54536313687259    6.83941163621588   12.54564491743978
H        -4.67215230207506    4.29652092968899   12.30141907619667
H        -4.24070259771057    1.88522309056006   12.28415186459354
H        -3.15709852691944    0.81989229574106   10.33734419289501
H        -2.56739294490436    2.19373626104282    8.36699583834916
H        -3.04147378143107    4.60746022922422    8.35854288352994
H        -6.42941408815732    4.93854129158503   10.67625942169175
H        -8.39042754467529    6.05588106740845   11.62237465607872
H        -8.24762231415415    8.39589752979538   12.40317917055840
H        -6.10047566902050    9.60760120277730   12.21817674112476
H        -4.12097908958408    8.48454165258116   11.31074642363052
H        -1.87456947220057    6.65666740755159    7.45441173970766
H        -1.25004863307891    5.48568893854316    5.36112759239019
H         0.45881732818959    3.66601195979137    5.45295579186455
H         1.48494642391951    3.12796719633882    7.66907471682685
H         0.76216958581830    4.40606182563913    9.67277279198926
H        -0.56841275366297   10.58389010825182    8.65223260179776
H        -2.13396990396557    9.79868647821631    8.84228034753932
H        -0.98067527557723    9.20169341853209    7.64221646269334
H        -1.09378991267242   10.51338976107270   12.11688945570183
H        -2.17669383604225    9.22283933892409   12.63417594981333
H        -2.45506238378673   10.06326635629931   11.09691959544727
H         1.12512819902656    8.29021983647243   13.53364734816864
H        -0.58642691899650    7.90441531095994   13.74343195215566
H         0.58199514062482    6.61286813639742   13.44130547987047
H         2.94931261268128    7.02855017040623   11.59610960712454
H         1.93642252469970    5.58470877248829   11.64669843391704
H         2.69460459354115    6.08995670301848   10.12585828717968
H         2.15394510319374    8.59574326492874    8.14706167090537
H         0.80496455771929    7.82454415877865    7.31719807346903
H         2.01283050907876    6.83761899006368    8.14413696734233

