44
CSD_code = DAMWET | q = 0 | S = 0 | Stoichiometry = C18H21BrCuN3 | MND = 4
Cu        0.08174937821137    0.11746802986546    0.23864930939438
Br        0.74455402632522    1.10182885324646    2.21177558086036
N         1.67569749636805   -0.29995070197805   -0.92496728637456
C         1.64364543396846   -1.20683615842384   -1.89679052216096
C         2.74559534126178   -1.54308843259453   -2.66715724868806
C         2.65786153463847   -2.56879851526470   -3.75284809136585
C         3.94343690995938   -0.88630131800177   -2.39147011457404
C         3.98167602415833    0.05166972138144   -1.37389535538370
C         2.82367381534873    0.31621106749404   -0.66388755871930
H         0.69180625149733   -1.69661108482238   -2.06120251426359
H         1.65364989459132   -2.98011701740681   -3.82138802878239
H         3.35518507359832   -3.38277922365602   -3.55931545454776
H         2.92222271684058   -2.12658935797247   -4.71287346289730
H         4.82888024397355   -1.11510832477273   -2.96700790222110
H         4.89443069456153    0.57208445158603   -1.13114612669891
H         2.81111687973755    1.03383785072368    0.14448844995388
N        -1.14523227284992    1.34004701934411   -0.79531592956325
N        -0.90522355088755   -1.60577710098485    0.59372769577550
C        -1.34754176295517    1.22270436900195   -2.10420867125736
C        -1.72577120897186    2.34402234043416   -0.14671477686161
C        -1.73535619655854   -2.15774941334032   -0.28612133221951
C        -0.76735849228155   -2.17547105412138    1.78626335924046
C        -2.14400859530294    2.08866227400024   -2.83672423036579
H        -0.83925037239601    0.40125165788228   -2.59385795852518
C        -2.53852799399580    3.26392424460242   -0.78567566254989
H        -1.52233419538097    2.41349704451764    0.91271743149480
C        -2.46465256828464   -3.30884442703616   -0.03330104536993
H        -1.82997964868171   -1.64866191272969   -1.23731957806886
C        -1.45116769431137   -3.32588801941145    2.13835969521189
H        -0.09618635200978   -1.68609491420105    2.47811004855616
C        -2.34350247908175    1.91220685827627   -4.30899185840355
C        -2.75514563611300    3.13405614309294   -2.14689636443507
H        -2.99113809569700    4.06582623708352   -0.22445437997232
C        -3.38406297921040   -3.89373029225311   -1.05853720105767
C        -2.30785605995558   -3.90388093838657    1.21711324254085
H        -1.31321040908675   -3.75767468396843    3.11683139236866
H        -1.78834731454760    1.05323063370751   -4.67817583213844
H        -2.00795315336265    2.79978291428123   -4.84369474911268
H        -3.40022574954527    1.76966330816251   -4.53283292848433
H        -3.38600973032917    3.83359585539195   -2.67628268519198
H        -3.38683595536316   -3.29614068928839   -1.96694885642056
H        -4.40036760017217   -3.94127070993192   -0.66976488664660
H        -3.07608675389116   -4.90882303951870   -1.30722212818788
H        -2.85534889382017   -4.80358354401104    1.45875451610787

