52
CSD_code = DAMYAT | q = 0 | S = 0 | Stoichiometry = C24H24MnO2P | MND = 9
C        19.71901443839142    5.44622816994232    7.99930036365869
C        20.60647585829989    3.68285632680079    6.64713784236465
C        20.62810858240123    4.14424789523796    5.30182966987862
C        22.85690396955448    6.91329282394749    6.72222910143010
H        22.95459252901514    7.72374971497075    6.01223065860809
C        23.30046357543101    5.59090204978673    6.53064663367508
H        23.81388615172080    5.22019627888096    5.65158840120512
C        23.14520538836476    4.88739577373411    7.74959708728186
H        23.51130205320290    3.89186787452291    7.95768242117865
C        22.58449956197105    5.76814160974162    8.69298027954195
H        22.46447618799923    5.57666915310651    9.75163754440985
C        22.37968560271052    7.02978824685276    8.04974470311597
H        22.12215679055653    7.95473292662116    8.55188171863238
C        22.51408845153930    2.62007691049306    4.73508313791124
H        22.69254623003539    2.46781059001137    5.78945521939163
C        21.49121983699028    3.48290682063825    4.32465470595044
C        21.27318099588981    3.63368913235594    2.95264950430489
H        20.46206800051583    4.25553465696787    2.60474320719895
C        22.06036936508869    2.96939154350951    2.03204595565915
H        21.87050768378048    3.10207447886020    0.97654337920911
C        23.08231185308447    2.13591463228131    2.45344651594968
H        23.70023661286585    1.62266519195810    1.73218865096576
C        23.29711129005451    1.95877573000403    3.81100562729962
H        24.08359938769169    1.30136872201833    4.15233293670445
C        18.15368145007161    5.88838718041732    5.22963961876884
C        17.31934393404161    4.81222008512992    4.89781782045092
C        15.94547058574028    4.97795398953213    4.99706563326769
H        15.30250297989384    4.14714867886522    4.74270289478076
C        15.37262376963774    6.16682521053481    5.42188835854459
C        16.21331462247544    7.21930825204014    5.75062972262313
H        15.78707298617221    8.15335358231720    6.08821885463774
C        17.59067141052580    7.09768186097141    5.66791994921402
C        17.84496552971925    3.48467498216168    4.44921672846880
H        17.04350262059611    2.88715817259524    4.02056163434799
H        18.25833628420751    2.93968687392799    5.29762458192030
H        18.62856892694775    3.59835833752817    3.70498612416353
C        13.88785005054604    6.30145687628527    5.55350984764031
H        13.57023976973584    7.32114906423992    5.34865266528740
H        13.58753013179694    6.05389015753934    6.57185848576658
H        13.37289980371672    5.62466850348270    4.87616506225443
C        18.44608155697849    8.27064008507786    6.03385684349594
H        17.93410991960010    8.90005914644399    6.75749167243899
H        18.65849104921261    8.87650782895884    5.15288605826297
H        19.39080099879019    7.93395816121833    6.47085507382452
C        20.45978943891283    6.65355946911501    3.66969927352224
H        19.76723158089431    6.40518085046289    2.86588132772655
H        21.47714327547076    6.36872071985045    3.40429950875799
H        20.42361716084952    7.72853386166420    3.84552121918046
O        18.72717394486003    5.35063983559566    8.59052592051866
O        20.53197723936906    2.64564263700582    7.22851925652755
P        19.98012989151680    5.81951561100783    5.23002947487706
Mn       21.20256869056356    5.51484273278675    7.03964112320446

