49
CSD_code = DAMYEX | q = 0 | S = 0 | Stoichiometry = C23H21IMnO2P | MND = 8
C         3.91490475380746    1.90089492354003   -0.32200023348725
C         5.93549405839037    1.99684389079872    1.22513092169343
C         4.18954136309450    5.19943962318105    1.54646589587820
C         6.40850395309598    1.04906121239659   -1.64105421988310
H         6.26970557572076   -0.02428139373589   -1.63903662259733
C         7.45283643439954    1.74742078902922   -0.98897714495135
H         8.23801811480093    1.29724207298234   -0.39488328328421
C         7.39461139446880    3.09771872930453   -1.39389780241860
H         8.13602574248188    3.85731129085059   -1.17993189570293
C         6.33401537706825    3.22844398274055   -2.32092127500636
H         6.13299432230593    4.10746659836415   -2.91797754257429
C         5.72409563114441    1.96965319830847   -2.47281757663125
H         4.96606738970657    1.71700865423647   -3.20283757866302
C         4.04994723590086    6.56405157094325    2.01217577199971
C         4.18500895199918    6.87944151469432    3.36619196553305
H         4.34470581131410    6.08569934933003    4.08140264459098
C         4.12754955728703    8.19167763515051    3.79048606635512
H         4.24118581200558    8.41726077778547    4.84024361270733
C         3.92361961502554    9.21444853253561    2.87782300709280
H         3.87936046805564   10.24000952304043    3.21184559063447
C         3.75671893552090    8.91035217422541    1.53701861406221
H         3.57179981895777    9.69780161771543    0.82130515339736
C         3.81103852999365    7.59933382871562    1.10667084443609
H         3.64082943495940    7.36329973630053    0.06887014111314
C         5.81680229023050    6.06050497547106   -0.57149484162661
C         6.96775723488626    6.59861659828893    0.01257014904432
C         7.60759798201624    7.65237200543556   -0.62210988933783
H         8.49458345046147    8.07508439702002   -0.17128114147261
C         7.13879282514698    8.17124390263582   -1.82067790133882
C         5.99718396739078    7.61772462966178   -2.38555078172399
H         5.61959216382264    8.01482985470462   -3.31783261175676
C         5.32675647584763    6.56702242651460   -1.77951641452047
C         7.48681877066161    6.06421805838187    1.30981000954329
H         8.55412564537544    6.24998391893059    1.41067331407997
H         7.30100535967608    4.98853674192290    1.38852554374538
H         6.97540376480624    6.55103900789067    2.14171091982328
C         7.84957836046756    9.29562614339920   -2.50825491252807
H         8.58486200825154    9.75240761816178   -1.85114745210296
H         7.14105336214359   10.05719894881513   -2.82834025830006
H         8.36404599451730    8.92678766823066   -3.39596213708520
C         4.07396357694035    6.02399165463000   -2.39804595683121
H         3.26879753435989    6.75644543642754   -2.32546706991696
H         3.75104120297362    5.11202409297636   -1.88548356900216
H         4.22103482112859    5.80598241022635   -3.45561824006440
O         2.87423980579454    1.40853236169956   -0.33409407926940
O         6.27022130809800    1.57475085051411    2.24296586276809
P         5.02944186834545    4.61893239747540    0.20201069865751
Mn        5.55682978148655    2.57102456936060   -0.40842067695007
I         3.29739216365339    3.64131949881012    2.69033638185844

