68
CSD_code = DAMYEY | q = 0 | S = 0 | Stoichiometry = C20H36BrMnN6O2P2 | MND = 6
Br       -0.23064534656171    2.88842285513289    8.53970954031317
Mn        1.71967839054871    1.63890493209241    7.76431918736536
P         0.27386009016133   -0.05738019403208    7.29387009155469
P         2.91660063884659    3.14054342014893    8.98957831578144
O         4.03823316843845    0.30129009461603    6.62607828713127
N         2.70476297116591    2.53136132743929   10.57134035831371
N         1.08064746122434   -0.74175603150934   13.31979589310879
N         1.90909096499779    0.89997947113685   11.98245156222070
O         1.88333218929406    2.88120446376498    5.12274957248316
N         1.60011234782177    0.74244795202438    9.65172033302421
N         0.58042772401306   -0.83803819435670   11.07297479999117
N         0.13776310617691   -0.81765323162786    8.81856740362127
C         2.38035055814614    4.91165936726765    9.24819346820541
H         1.40799288670450    4.80607580934332    9.74881502385937
C         2.05912647278929    1.35507755776859   10.75108298789285
C         0.32141585131876   -1.90001457201450   13.64125852145244
H        -0.11795507209343   -2.32649072181713   12.75093712787333
C         1.19339818768482   -0.22756528592144   12.09299712579150
C         3.12280119491474    0.78908791740881    7.15232589296907
C        -1.53450776440559    0.22078001208093    6.90521834349583
H        -1.88963236942522    0.77666006254784    7.78405680939301
C         0.79144685722373   -0.29733339248870    9.88467735045786
C         1.17448486282273   -1.02348976120458    4.87126268296153
H         2.03777109500180   -0.36631534065196    4.96990607556270
H         0.37974790225451   -0.46014847507360    4.38765958747293
H         1.44734275624813   -1.85737774977159    4.22656363010680
C         2.14507223895508    5.58900371226286    7.90094755148127
H         1.62247544524746    6.53244044432891    8.04527200403228
H         1.53310075574036    4.95835526182726    7.25684064231868
H         3.08308063063736    5.79209955875082    7.38890598533532
C         1.83988955626484   -2.35012644683314    6.90312905423463
H         2.14596988168397   -3.15642445482935    6.23842906797073
H         1.50284436948351   -2.79079923633556    7.84007806403228
H         2.71201056696611   -1.73382757406096    7.10754310946063
C         1.77544270569877    2.42133368287096    6.18203079143175
C         5.22600099822228    3.61265381911371    7.53894560828544
H         6.31122498486288    3.57715933571106    7.45811120502221
H         4.89745921710162    4.61699754848627    7.28213480931814
H         4.80214874406192    2.92159280731178    6.81008883693004
C         4.78283895978800    3.23125471035418    8.94750593114804
H         5.10448484478286    4.00106487557553    9.65812622535584
C        -2.38002973409954   -1.04049451211651    6.75928698509305
H        -3.43203496108486   -0.76100807580445    6.78729043774672
H        -2.20409185244457   -1.75164609177270    7.56560799646077
H        -2.19638372461102   -1.53422502229620    5.80710286211139
C         0.73628602728300   -1.52901693858900    6.24252694266995
H        -0.15017418913773   -2.16339232307659    6.13239766780000
C         5.39445257733742    1.90013904922091    9.37621815318306
H         5.05661025626333    1.09165438935671    8.73266154736978
H         5.13158493019603    1.65446307391009   10.40441480873523
H         6.47981813804783    1.95369191195471    9.30725324320471
C         3.29269353467005    5.75159165068438   10.13596345146406
H         4.21107835709046    6.02186423704328    9.61863791944844
H         3.54560104108194    5.24167695926649   11.06493526524117
H         2.77568605805239    6.67440876205430   10.39454305741027
C        -0.43208278535025   -1.95079959588079   14.93599975981767
H        -1.39919404760358   -2.42765613113716   14.94703908914699
H        -0.35800204838606   -1.10185171099289   15.59827532324095
C        -1.67968910475549    1.12636825530059    5.68542967485536
H        -1.48789076931298    0.58087353137504    4.76381642200886
H        -0.98371134398834    1.96312574563397    5.74369619577532
H        -2.68920112486581    1.52943377484183    5.63925791740186
C         0.79077185444107   -2.80161684298851   14.74271832544133
H         1.68804751439024   -2.52507138386309   15.27508070526232
H         0.66797527043033   -3.86612707947904   14.62124709174709
H        -0.50439426091816   -1.57422789077058    9.01810665035380
H         3.02046188006379    3.00230433352763   11.40965833962736
H         1.52392148237345   -0.22607241224784   14.06463530861607

