46
CSD_code = DANBIG | q = 0 | S = 0 | Stoichiometry = C18H22ClN3NiO | MND = 4
Ni        1.71793405743481    5.99608760688689    8.41545733186265
Cl        0.99100206576215    5.18109155767751   10.18356046450705
O         5.30588521560476    5.22064793561962   11.26856425945677
N        -0.04901482370830    5.83924824052711    7.46247615691933
N         2.32076189407197    6.77366635806828    6.87061350692352
N         3.66759461967058    6.19232526616762    9.05290560848122
C        -0.32546557253497    4.42045019136400    7.18319798505948
H        -1.26683147951683    4.31106474330087    6.63511107261868
H        -0.39427808839215    3.86929412417148    8.12145671465491
H         0.48337821052687    4.00415087672391    6.58021708650593
C        -1.15961126162133    6.41354148586189    8.24126975227749
H        -0.97098682121652    7.47484615935873    8.40679494772829
H        -1.23176208431420    5.91110518680985    9.20502596824786
H        -2.10921516527673    6.29769710819044    7.71165849149354
C         0.08663035124064    6.57941128041690    6.20410073085374
C        -0.96493443116571    6.78832833543820    5.33540708131407
H        -1.93378975178444    6.34734727639575    5.51707190723163
C        -0.78515580089341    7.58889958780411    4.21796945494134
H        -1.60273306606442    7.75044371734739    3.53318904658709
C         0.43475438455476    8.21368369029350    4.01693988224218
H         0.55809517477175    8.89224563202950    3.18556042570183
C         1.49983396145264    7.99199882308174    4.86535360802140
H         2.41778607596997    8.53604409948638    4.71854905047175
C         1.36467029204855    7.11283505823231    5.95076679314861
C         3.67116752387155    6.91569979510038    6.74202471655926
C         4.37191434950401    7.14622163474743    5.54777554425040
H         3.85853131863477    7.08406805067620    4.60244476634259
C         5.72182549815491    7.42169551223686    5.57775909995788
H         6.24593981649184    7.61167363834899    4.65257655685306
C         6.40460321348384    7.46565651830922    6.78119699886382
H         7.45062904898022    7.72830156062442    6.80932657238218
C         5.75496193962884    7.11064507296754    7.95477724707245
H         6.33085828824968    7.10052729992765    8.86415851452615
C         4.41472228772728    6.77559472327485    7.93857617538881
C         4.05988706988029    4.77102019998492    9.24374903044301
H         3.28538139462391    4.28190506914385    9.84429777564603
H         4.12687536044776    4.28899083438458    8.26383938726372
C         5.38010872795500    4.61053461208143   10.00062946922631
H         5.56129906774283    3.55012406929346   10.18856292954836
H         6.22388978004360    5.01347872851048    9.42355491813166
C         5.05061238516751    6.60090737310139   11.15982700072100
H         5.93290132610443    7.11421239165229   10.75189168403674
H         4.89856175252971    6.95686899284366   12.18167645406969
C         3.78635825208911    6.90974442424222   10.34169735598429
H         3.72867798362851    7.98301588783858   10.14632293233658
H         2.92834565844330    6.61065926945282   10.95241754314407

