118
CSD_code = DANBEA | q = 0 | S = 0 | Stoichiometry = C51H60MoN2O4 | MND = 6
Mo        8.58654040066314    2.30923849599405   16.96445407808516
C        11.61073135992680    3.54617950071238   18.84855659381970
H        12.58334819924034    3.83603493125787   19.25328703667911
H        11.69869536996353    3.40645695730677   17.76533983199236
C         9.45900997292116   -1.01596558892706   18.42976258993890
H         9.69979885777258   -0.83732494411848   17.37562786318157
H         9.83255361262403   -2.00073101003026   18.72065747264160
C         5.05404391994426    1.14647593000343   17.37588958564898
H         5.44666557146604    1.25303508809485   16.35833057038136
H         3.99939622926395    0.86538203275145   17.32611991681787
C         7.19799845876895    5.71168225979096   17.81194681875875
H         6.74115086221430    6.70159807429486   17.88374099222502
H         7.43718676226076    5.50092953426239   16.76368058038182
O         9.26895725037371    3.88054682539451   17.34324815525153
C         9.46145724361621    4.74281214764761   18.32971121591935
C         8.45913270309591    5.67864647905058   18.63940103992035
C        10.60052907707606    4.62819448029002   19.14161634746785
C         8.63645171021599    6.50010196149260   19.73845352316716
H         7.86421318840916    7.22178410276826   19.95931969916716
C        10.73058779342487    5.47165393767002   20.23556592440974
H        11.61627869713405    5.36970135841909   20.84200456207369
C         9.76276501709972    6.41779837304922   20.55543858059197
C         9.88341355076072    7.35191851187122   21.75153147151597
C         9.89129026133880    8.80249601924230   21.24892773448584
H        10.71936928856773    8.95572112689805   20.56045237958854
H        10.00495679419311    9.48948150054376   22.08499952899233
H         8.96844652177609    9.04603016794183   20.73040653934067
C         8.68640082868856    7.13666748803476   22.68984414216925
H         7.74355746917843    7.30327995770568   22.17689455726382
H         8.74224121491864    7.82726147035942   23.52869247230856
H         8.68860641261937    6.12152703793868   23.08271241986172
C        11.16435689494879    7.11958289051424   22.55777802547740
H        11.20305742646733    6.10695823435764   22.95363372190385
H        11.19172280707960    7.80827132187512   23.39981448937622
H        12.04735124530840    7.29900166053807   21.94927743829594
O        10.40498790741207    1.44442423625734   17.35674048132803
C        10.57440757039326    1.24440695830249   18.65073618733179
C        11.17975181098901    2.22637890341137   19.46138774989195
C        10.14695209345808    0.05004028291602   19.26155895828897
C        11.34891686936764    1.99480928931478   20.81364317738597
H        11.82423159809035    2.76825945550841   21.40110014239448
C        10.33388484484210   -0.14165348558947   20.62024483325363
H         9.99074265937650   -1.07297814934814   21.04193256765700
C        10.94428785919976    0.81125134437798   21.42483408580270
C        11.22263245388973    0.59409449305627   22.90638862081726
C        12.74224035588822    0.62367686150876   23.12589764728015
H        13.15868685552487    1.58977745674813   22.85478315921414
H        13.22226617239308   -0.13623448239356   22.51349673368929
H        12.97923889617211    0.42859613435101   24.17020173602542
C        10.69332370685376   -0.74967776999286   23.41517409156612
H        10.90279273164525   -0.84411404564786   24.47925145115369
H        11.17733034330079   -1.57724973040491   22.90283640025038
H         9.61702040448767   -0.82451610579802   23.27532584522623
C        10.56491302957307    1.70381253698214   23.73907604891077
H        10.87784538667728    2.68966159668996   23.40653057443043
H        10.83614496962078    1.59626953586354   24.78784836412250
H         9.48104754621877    1.64041946939101   23.66148065299366
O         7.80660197402717    0.75824037473525   17.02469617450467
C         7.19959145228456   -0.06049341658741   17.87711500792955
C         7.96350844523827   -0.96674128793558   18.62795058232841
C         5.82635951040505    0.08057682544407   18.11524895731848
C         7.32355943855782   -1.74258752574082   19.57815442834620
H         7.92067572058779   -2.44053333229692   20.14590509608575
C         5.22940626231481   -0.71934499944354   19.07854795797855
H         4.17054994615872   -0.59952567154535   19.24106140031714
C         5.95553664841197   -1.64237451706623   19.82039102539726
C         5.32450666106400   -2.52278716710294   20.88983517612889
C         3.81996149570216   -2.28302963111380   21.04223295145622
H         3.61592928943177   -1.25674646999962   21.33849001387471
H         3.42442773383420   -2.93984995237521   21.81467918311990
H         3.29361631432446   -2.49964481391623   20.11578980648966
C         5.99298173974025   -2.22340316151038   22.23955143899271
H         7.05526698038511   -2.44860909430641   22.21389130205158
H         5.53715392755874   -2.82188419034751   23.02580443394161
H         5.87312521690553   -1.17147832639023   22.49116912141917
C         5.53723969366458   -3.99701943284625   20.51929627692105
H         5.07904226145480   -4.21071957019399   19.55615213473622
H         5.08389178002977   -4.64232249605195   21.26901995915772
H         6.59382480867866   -4.24005370241932   20.45430569324430
O         6.80124959592121    3.21936700335280   16.49996294971032
C         6.08618331406328    3.45035605417403   17.58497482472727
C         5.18835869910291    2.48263161287302   18.08092116330596
C         6.21176627432492    4.66227377769066   18.29086466236800
C         4.46388668344654    2.74002867593943   19.22866023808132
H         3.78354222652922    1.97564928185995   19.57516962579794
C         5.47033030602553    4.87883639052128   19.44130506762857
H         5.60424112177854    5.82242295534902   19.94809778708151
C         4.58104151244445    3.93353700129446   19.93552337518713
C         3.73035766936841    4.15655630450524   21.17872981761890
C         2.25095703202490    4.15414638014347   20.76799944287584
H         1.61523618237445    4.32884769339567   21.63408586688675
H         1.97158004636168    3.20324838470067   20.32337401089665
H         2.06478433984930    4.93776474414561   20.03698563347906
C         3.97997483740115    3.03028977017192   22.19237342051252
H         5.01999029078228    3.02669737995466   22.51307298433448
H         3.75607714212262    2.05720317595361   21.76546421505070
H         3.35123810983459    3.16999242146394   23.06985597820179
C         4.02966394903097    5.49045355526550   21.86966390202707
H         3.40627479943427    5.58866191825087   22.75658029214940
H         3.80979942791690    6.32744665379663   21.21166188502962
H         5.07019568688927    5.54947255815662   22.18366816599466
N         9.03737971694375    2.31079962201110   15.04200298369292
C         8.74422881146654    1.26626166671652   14.22722230809078
H         8.23977263205374    0.42990074597615   14.70276519218006
C         9.04597319232399    1.22239775755259   12.88632686976298
H         8.77544788493591    0.34961735571517   12.31189158360015
C         9.69270390524989    2.29626171343381   12.28452494080843
H         9.94195010821665    2.29056883191488   11.23642974191596
C        10.00169380180214    3.37742737897739   13.10196387719000
H        10.50264142953962    4.24590251617391   12.70238999354211
C         9.66704776558443    3.34761969213120   14.43569553940683
H         9.90538440436448    4.18950681473901   15.07853295588855
N         8.13692962275602    2.35750742036964   18.97180800405922
C         8.09502599151726    2.81742943550184   20.03207540805358
C         8.01223752673213    3.36210184156880   21.35025828878523
H         8.84690156546769    4.04879293350956   21.49818628540359
H         8.07774754259669    2.55410646805406   22.07757588362207
H         7.07163851196139    3.90166257119071   21.46947930521264

