36
CSD_code = DANDAA | q = 0 | S = 0 | Stoichiometry = C12H20Cl3Ta | MND = 5
Ta        0.95904018175664    5.09400468891784    5.46000951297930
Cl        1.87716997304647    6.02860114676003    7.32587682939187
Cl        2.97176518726488    4.45786323649920    4.60725089816814
Cl       -0.22144062239050    4.24249725974571    3.70577981059638
C        -0.64324872126207    4.28673626905390    6.78834226196344
C        -1.57663404674566    5.23816832182187    6.86060657427371
C        -1.46654059103522    6.51798461880287    6.16723405548268
C        -0.42331381645554    6.84562791387921    5.40179378083202
C        -0.64489621542890    2.94450649659865    7.45582765033892
C        -0.56014487085271    1.86516741738586    6.36431897553731
C         0.60030837370033    2.85495327209463    8.35323794439194
C        -1.89773065972302    2.70378789692136    8.30676693424672
C        -0.20248905308658    8.12061485183148    4.64506160994145
C        -0.10469820808865    7.77898949717830    3.14927083063306
C         1.12876493008117    8.73157100052149    5.11213703710295
C        -1.32673340727627    9.14168077299868    4.85761503589279
H         0.35145536813739    1.97940618905504    5.77555014476028
H        -1.41354613051643    1.93963389964858    5.69360788961163
H        -0.55700860621200    0.87570097439975    6.81578102770521
H         0.58121545039132    3.64254330392070    9.10361651288406
H         1.51211065155491    2.96321798687388    7.76362971240131
H         0.62920146985584    1.89246141228800    8.85880319462677
H        -2.79221874243206    2.74839643050005    7.69090979375634
H        -1.97195830059284    3.44748350043048    9.09592795978634
H        -1.84672160751158    1.71970033355742    8.76661265865244
H         0.06014693759913    8.68367628183654    2.56855826061892
H        -1.02498835819389    7.30893575843948    2.80909443520489
H         0.72188211595830    7.09194584182721    2.96201537827519
H         1.09561966327322    8.93533290307193    6.18042536240448
H         1.31794534739494    9.66409017335692    4.58534844348981
H         1.95864200616264    8.05019831875000    4.91667294445260
H        -2.27641500512132    8.74246224611252    4.51112584356729
H        -1.11135789298344   10.04822744610782    4.29702942463218
H        -1.41265384723661    9.40086488446347    5.90969862516366
H        -2.47826371423232    5.10631485841640    7.44934806342931
H        -2.29856523879805    7.19825259593200    6.31531458280524

