55
CSD_code = DANDUS | q = 1 | S = 0 | Stoichiometry = C23H22N5O2RuS2(1+) | MND = 6
Ru        2.28558537938889    4.31359464273514    3.42271955524725
S         3.26949073905933    4.41945654942190    5.46868107892714
S         2.92610545141488    6.68162705526035    3.76477741283724
N         0.60228451839636    4.46511806716043    4.46911210348141
N         1.93527797612657    2.37879356944038    3.75273196316761
N         1.50602002848382    4.45012408558956    1.56527799802098
N         3.95951529437644    4.14648405895616    2.32502401471089
N         4.03158346199138    7.09237277771352    6.16292785198120
O         4.59009557669445    3.86262328660496    5.71910202519030
O         2.34682881928240    4.33759164173897    6.59026800386123
C        -0.08444449054053    5.57929905920583    4.70161831776026
H         0.20891593729641    6.45084829195471    4.12705523222625
C        -1.11117199048642    5.64863848104903    5.62435105347826
H        -1.62817990394859    6.58005994505214    5.78766536336614
C        -1.44538275661089    4.50504045218144    6.33653142596120
H        -2.22953016636447    4.52615188908814    7.07645091282987
C        -0.75437005636277    3.33567451498382    6.07941832108487
H        -0.99943309394761    2.43370493118899    6.61421927545188
C         0.27327934164176    3.34162985233446    5.13914045980526
C         1.06045718990685    2.16820602111824    4.76231800623702
C         0.93733901746172    0.91259409575496    5.35409418961335
H         0.25501224320243    0.76568782636358    6.17435070469562
C         1.71018562316698   -0.13774635368978    4.89538060252856
H         1.63640912927185   -1.11233859489996    5.35069127850326
C         2.58082566456805    0.08697913399732    3.83650005576806
H         3.19249592533947   -0.70609834914062    3.43906690797508
C         2.66139726759064    1.35776709981148    3.30091973704485
H         3.33186091826977    1.57142205705055    2.47680237853302
C         0.21040197321044    4.54045254464803    1.26112434988337
H        -0.48683212696486    4.43511937609395    2.08369926454296
C        -0.24678581396805    4.75489146034900   -0.02469197452519
H        -1.30502330831132    4.81946812697352   -0.21717948789958
C         0.67951427677477    4.88606282722230   -1.05171210124567
H         0.35801628616883    5.06271327579494   -2.06551792293494
C         2.02345591222045    4.78005607990353   -0.74806893573183
H         2.76090137005103    4.87251806128246   -1.52752516264228
C         2.41705237031597    4.55502202852749    0.57065858754528
C         3.80548285400238    4.38690037420090    1.00112884725247
C         4.90097135404012    4.44432791851009    0.14180876062905
H         4.76127451957800    4.64829499673520   -0.90645649545644
C         6.17375963237447    4.24318101871826    0.64392159117641
H         7.03338639601375    4.29027067816895   -0.00535559950727
C         6.31614016844351    3.97670386847934    1.99825100737838
H         7.28582453278503    3.80522253890301    2.43559248057242
C         5.18701802591878    3.93730673817591    2.79763050288767
H         5.26803315023708    3.73590071467028    3.86023390975468
C         3.54349812406789    6.27875860126165    5.27503552031746
C         4.11590286955424    8.52518445717459    5.98757714809835
H         3.67835328567175    8.80313421059893    5.03084961125801
H         5.16026343514133    8.83926833727281    6.01317849350642
H         3.57978685096555    9.02497202305082    6.79520480672568
C         4.51879276769470    6.57839414609495    7.42289061537827
H         4.49445371597886    5.49164147886119    7.41664588927011
H         3.89276812839359    6.94529409231406    8.23826948078503
H         5.54313620499853    6.91753393796217    7.58361058267899

