39
CSD_code = DANKOS | q = -1 | S = 0 | Stoichiometry = C12H16N2O8Rh(1-) | MND = 6
Rh       -1.75574212148125    1.80220610505157    0.87852913764516
O        -2.56065441022181    2.10134761721413   -0.94864102730838
O        -2.63544002103826    2.44139601677181   -3.11490573815509
O        -3.52381002255483    1.13957186087286    1.59309307652778
O        -5.04129265952538    0.56334734590246    3.06877158837333
O        -1.12165083912853   -0.10102325230558    0.51512871593125
O         0.28702309854528   -1.58548324952416    1.37409880221626
O        -2.04376499250279    3.75498660788044    1.39116378387900
O        -0.84730581771088    5.60508163827426    1.65829051760431
N         0.06044260082742    2.48386876824915    0.20555809290707
N        -0.88441196236859    1.50010225734398    2.71298441942447
C        -2.01546416508596    2.24493734335562   -2.08138657096812
C        -0.45282766574145    2.23553035599321   -2.25705180448309
C         0.44834606984646    1.87515928050787   -1.08064598259287
C         1.01966139349417    2.07736484908465    1.24945860700427
C         0.39779380734527    2.22503012818669    2.63871000676170
C        -1.69398274711335    2.04761798496713    3.81751107952824
C        -3.04401157723167    1.36766404889931    4.02019356911184
C        -3.94159746388191    1.00823895480201    2.78000930708647
C        -0.46286217442617   -0.62768051440583    1.46254831946783
C        -0.66020375495790    0.05306337301628    2.85369144584759
C        -1.05441029012594    4.51317920586512    1.15604939965567
C        -0.03087412535485    3.94958859166709    0.12073088933795
H        -0.26162427517716    1.51666791736910   -3.05599025715903
H        -0.20250013208006    3.21922018514755   -2.66448526055055
H         0.41849705596377    0.79044075273810   -0.94435902169748
H         1.48382771851939    2.17218343725713   -1.31532090461212
H         1.29264602010367    1.03101490579096    1.08440225697107
H         1.93503777845552    2.68330921479458    1.18588425529888
H         1.09565682092978    1.84833804043145    3.40045808389133
H         0.21258577259769    3.28381926321958    2.84173958699389
H        -1.11180572197217    1.97909224629510    4.75125913402776
H        -1.87095359505398    3.10325847596377    3.59293873130077
H        -2.94054065703423    0.43451990365110    4.58146502759104
H        -3.66041841822346    2.02706599218673    4.63431146897446
H         0.18848889602483   -0.16324566224836    3.51430020535015
H        -1.55523750505728   -0.41605220339719    3.26389109332647
H        -0.43857077764174    4.23347859968109   -0.85008663397797
H         0.94955086003832    4.42519361344900    0.24700259946857

