59
CSD_code = DANLUB | q = 0 | S = 0 | Stoichiometry = C24H28N2O4Pd | MND = 4
Pd        1.63647545896924    4.69960644056504   18.24514000826211
O         1.30685432754056    2.96712052529577   19.41633742453596
O        -0.07236016554165    5.49702107156977   18.98414947847215
C         3.61845764634316    6.33343755603649   16.99406762429233
N         4.14822510614235    7.15511554219428   15.92075472897100
C         2.07132998945525    6.31815662612646   17.04336894963463
N         3.32094289973120    4.00677805204046   17.49400952881601
C         1.41173532351212    7.49665999488257   17.64623566119036
C         4.73187688175328    2.26148885799675   16.71857177285806
H         4.95208283247275    1.20672912973989   16.68117962661797
C         5.01990742914499    9.12464791378142   17.02012198193360
C         3.27673472328303    9.37172802211071   15.34945123476832
C         4.12613163103893    8.55190637070709   16.10594834887459
C         4.07459610605735    4.90663103405189   16.84849421207184
C         3.63278743941283    2.71512864257599   17.42352417133873
H         2.97919527670839    2.03377177716850   17.95660538683984
C         5.19744449382798    4.52536876557474   16.12575221206156
H         5.77003629937825    5.28275819439828   15.61578205999394
C         5.52939814870280    3.18557719924409   16.05656372401439
H         6.39081012827099    2.86226411110716   15.49219963992473
C         3.30064701701430   10.74192059487800   15.55862416619177
H         2.63788257538806   11.37355959799790   14.98519924628503
C        -0.86195350591693    4.95635798968272   19.80597371127939
C         2.33537491742522    8.78860999661957   14.33683869224417
H         2.86274090666707    8.17640268895892   13.60474473423014
H         1.81996309281319    9.58422266111415   13.80501516630053
H         1.58422798213467    8.16887021454684   14.82590597213109
C         0.31456919270903    2.79946562196100   20.17779950854023
C         4.14458909046459   11.30743883149500   16.49654466840834
H         4.14134460769467   12.37507872713510   16.65737456631802
C         6.01696189777299    8.28865440163776   17.77171551984960
H         5.65054248448451    8.02461950426359   18.76529081819450
H         6.94051170665162    8.84896081191567   17.90396410081374
H         6.23397819807263    7.37386902957092   17.22645580509745
C        -0.73166179216285    3.69727243977829   20.39882911770968
H        -1.50645905963952    3.39286108301558   21.08534035607703
C         5.00577594061259   10.49853109982276   17.21265096293131
H         5.69034369425989   10.93593695381885   17.92582144483811
C        -2.08000533667740    5.77292271772238   20.18211960316481
H        -2.06487950433121    6.71131553865638   19.63407520594298
H        -2.07675631996819    5.97539317947109   21.25072953396666
H        -2.98733923690683    5.22441891027412   19.94059823293753
C         0.25454464680640    1.48325609132403   20.92670303449180
H        -0.63573489936432    0.93114842694626   20.63375277072544
H         0.20578209350248    1.66566749470163   21.99757639678834
H         1.13675567714099    0.88964295256150   20.70096377535142
O         2.23418320599363    5.05101977826101   15.06101612118104
C         1.50614722058251    5.61639698134342   15.87872935226552
C        -0.00441940160396    5.53480352184512   15.73384078873172
H        -0.47058310898634    6.47420024513529   16.01752269890197
H        -0.38456652075915    4.73590060167925   16.38770188862373
H        -0.24631846254809    5.28015566496694   14.70398351831072
C         2.03107364403238    7.98870874224581   18.94878048585392
H         2.86187898056811    8.65758198867262   18.72822441652825
H         2.37688196860219    7.14611029074522   19.56049596232912
H         1.27849495739856    8.55349294913420   19.49342840400556
O         0.44276744629498    8.05956946380291   17.17487160432881
H         3.70222213253995    6.87807704325674   15.05263230359862
H         4.01162989501564    6.71348934185121   17.94370756908807

