73
CSD_code = DANLAF | q = 0 | S = 0 | Stoichiometry = C38H32NiP2 | MND = 4
Ni        0.27230896745825    3.66459032695643    1.10709701489519
P        -0.25923886777539    2.39649907381526    2.79799595409946
P        -1.04706559568126    5.40497435602908    1.07310074982964
C         1.76444135820883    2.80641887629221    0.19920501529041
C         1.42860627857461    3.81118485801560   -0.45516342808054
C        -0.12194648106040    2.85058789893428    4.56109522836288
C        -0.27434410795781    1.93031843677707    5.59378737709110
C        -0.18390065741900    2.34649097258469    6.90945245412030
C         0.06502086511841    3.67759647214761    7.20656671383974
C         0.23769347658637    4.59432936907812    6.18319164512258
C         0.14854993552391    4.17918583774621    4.86683700914611
C        -2.04575528841787    2.07394402766406    2.59219928111429
C        -2.95989244315939    1.83671538455378    3.60855517165218
C        -4.29543806210384    1.64359608230072    3.29991077523284
C        -4.72575590227689    1.68768702262299    1.98479624269780
C        -3.81810253805347    1.92785897164141    0.96550128761185
C        -2.48667815982459    2.12327520924537    1.27209736089483
C         0.40069250637293    0.69334517471533    2.88938455101836
C         1.73725258914302    0.56246535654382    3.26027401467026
C         2.33305431054520   -0.68240511622589    3.30778995528372
C         1.60123290315783   -1.81122700451459    2.97174844011843
C         0.27741625562261   -1.68605013996679    2.58636424220955
C        -0.32338213480580   -0.43936805969252    2.54100967268166
C        -2.76442959766803    5.37148613975656    1.70011708526013
C        -2.95034944536855    5.14616607305500    3.06175426912899
C        -4.22187548938013    5.03821893874081    3.58801435165449
C        -5.32648675042983    5.13664103795876    2.75718019942932
C        -5.14949953939020    5.34401494399232    1.40048113386522
C        -3.87598289951343    5.45914606011716    0.87139049006614
C        -0.33041160769634    6.73939206007549    2.08968348143774
C        -1.05814824993472    7.77134320224474    2.67128562012924
C        -0.40785181191893    8.73067466340472    3.42720764657666
C         0.96473735237481    8.66771097437113    3.60892460189515
C         1.69435427608592    7.63775973174039    3.03739851742902
C         1.04639494061317    6.67752863001632    2.28328518652507
C        -1.30703805439690    6.25453397284212   -0.52755368038531
C        -1.33197102162543    7.63319345669007   -0.69194978278949
C        -1.53714407765961    8.17602274516587   -1.94876161743968
C        -1.72259534439176    7.35226857294417   -3.04656664176711
C        -1.69258714449087    5.97562286244044   -2.89042125054488
C        -1.47831896517315    5.43225226033573   -1.63815141659919
H         2.32144493407593    1.92593696821639    0.42498649240044
H         1.48400042989950    4.51508542646526   -1.25437616438805
H        -0.45245291426133    0.88831446234552    5.36518716934589
H        -0.30641774489960    1.62972311172264    7.70910102363822
H         0.13413751206423    3.99605607652103    8.23661599659572
H         0.44646430402000    5.63042858611027    6.40854723792633
H         0.30218648742681    4.88323596461701    4.05841064118470
H        -2.63548560200055    1.81514636879220    4.63882368806516
H        -5.00733916209657    1.46299943224173    4.09271068659472
H        -5.77101633611337    1.54289216017157    1.75382711025533
H        -4.15363671463119    1.97086526955483   -0.06061650090242
H        -1.75586936018370    2.32887231268326    0.48943076559380
H         2.30125860036364    1.45264130677903    3.51150193915833
H         3.36859390451524   -0.77687859190870    3.60243072521288
H         2.06527872448102   -2.78621758905792    3.00556264353877
H        -0.29198769385705   -2.56468905995881    2.31827396521261
H        -1.35643183702188   -0.34689013129431    2.23591264073102
H        -2.08690502336840    5.05361355289696    3.70739232733802
H        -4.35291301661275    4.86978150716650    4.64727110368492
H        -6.32208665590391    5.04754987808457    3.16666199062836
H        -6.00836765469575    5.41604444879089    0.74845565427168
H        -3.74765032884862    5.61928393289733   -0.18967132636534
H        -2.13050796835368    7.81691570108962    2.53975081357256
H        -0.97471548521752    9.53246698484947    3.87882962004254
H         1.46453119295269    9.41967864663180    4.20230567326337
H         2.76304856022659    7.58201108513030    3.18618800264813
H         1.59635381448673    5.84894523006353    1.84146959573683
H        -1.18369356722961    8.28378485785624    0.15773510660991
H        -1.55242014670110    9.24948407014606   -2.07215085203730
H        -1.88358135700723    7.78248787194503   -4.02436122587833
H        -1.82967008044318    5.32990540479779   -3.74614319164827
H        -1.43281559349775    4.35753504015836   -1.50337827427543

