58
CSD_code = DANMOW | q = 0 | S = 0 | Stoichiometry = C15H33ClN2O3RuS3 | MND = 6
Ru        5.50188954953338    4.90773049243719    2.27747886379969
Cl        5.44184633393167    4.67388109354704   -0.11015383250618
S         5.30464552996015    2.64889767037922    2.31682524424263
S         7.78293839229302    4.76107938049403    2.20950895658279
S         3.26996071844838    5.13162541925928    2.26258406735648
O         6.61277454560184    1.99501401209145    2.19828361113950
O         2.54712085540284    3.95576192656589    2.74113508741133
O         8.40461677578997    6.08427078965006    2.27074678220013
N         5.92504278803686    7.35459974626281    3.70293429670441
N         5.77330086815598    8.01242317070293    1.66769756959744
C         5.73894854725665    6.91744512834002    2.44639189949291
C         6.09286397081415    8.71793347354716    3.72829283769752
C         5.99453921696084    9.13819527811117    2.43641200604831
C         6.05758833525164    6.42882122121950    4.80338728645455
H         5.51485338697539    6.82941112964962    5.66819852411704
H         7.12164282173153    6.37408840121530    5.06165400124281
C         5.53698946704712    5.05784340691579    4.36502983075283
H         6.17059771202804    4.28562064209232    4.80934249384467
H         4.53274912312523    4.90278867514576    4.77515702236691
C         6.33681074333280    9.46633275774106    4.98886120522914
H         6.45911966443001   10.52531116335712    4.78245953985257
H         7.24076352787821    9.10040078325917    5.47416515897181
H         5.50491166143910    9.34022020827718    5.68222075782155
C         6.06087599044473   10.50943983169838    1.86551178708809
H         6.09780237964453   11.24196900872151    2.66664784175347
H         5.18621871648046   10.71612087552523    1.24926320689546
H         6.94828261759923   10.63233079310987    1.24669688002827
C         5.78227150878375    7.98021402478673    0.22388173318366
H         5.21693121604006    8.83234095665491   -0.16298848750190
H         5.30320572238868    7.04914843922657   -0.08741470471983
C         7.21485098611041    7.98469603079298   -0.30320511547635
H         7.68934418967975    8.95453050214926   -0.17599897166736
H         7.21630102330205    7.72571122466716   -1.35736255298810
H         7.78947311997656    7.24226613534314    0.24586695439638
C         4.24120902717552    1.85601669505654    1.07114381457104
H         4.54454636289165    2.22875679378375    0.09739469111356
H         3.21807883729975    2.13910806252564    1.28910162351596
H         4.38911670982907    0.78432121661405    1.13067253476774
C         4.52484729037067    1.86065037965327    3.76458688139536
H         4.52101703593415    0.78838879692743    3.61064992854294
H         3.52203916020599    2.25970548205636    3.85118458448179
H         5.11516901999897    2.11085885934968    4.63827138539985
C         8.68052111622949    3.77029318898327    3.45240436317901
H         9.73635062555019    3.82481768702659    3.21684293557832
H         8.30696577951186    2.75582552863236    3.39501819772559
H         8.49487324721921    4.20534067287408    4.42735144151183
C         8.48171632059088    3.95005750551963    0.74231147924518
H         8.04073595707768    4.41673306051569   -0.13306995927571
H         8.20490471903174    2.90369374037235    0.79285963643139
H         9.55534697697796    4.09498935923475    0.75659091393041
C         2.47593136325767    5.58343543424898    0.68530179705820
H         2.88329910569532    4.93734190852585   -0.08588069145993
H         2.72220621951905    6.61410207046335    0.46229115008140
H         1.40851723911978    5.43410030555036    0.79569374109248
C         2.58209649365046    6.54081259992071    3.21335432757321
H         1.50471047764155    6.53943918786243    3.09863782479984
H         3.02344676457387    7.45365404734293    2.83158155986388
H         2.84538214473940    6.40129362401383    4.25489405746042

