136
CSD_code = DANPAL | q = 0 | S = 0 | Stoichiometry = C52H77N4O2Y | MND = 6
Y         4.62798752920471    3.56967653447848    4.23703622812124
O         6.62556682812941    2.50345837020002    5.48635632419956
N         3.64904465145069    2.36676552084032    2.43037135916972
N         4.98133547248611    1.32271797575837    3.81940109987791
N         3.43392793797495    3.29115036837163    6.01057516882526
H         2.66491650970838    2.68061718862695    5.72463004059736
N         5.86287011931003    5.25179968272026    3.70693482629709
H         5.37584810887904    6.12587924392734    3.90731803352070
C         4.24142416620769    1.21529643563649    2.70913885711895
C         4.14397171211672   -0.03574558059732    1.82560140326451
C         3.53151255252939    0.21110075736811    0.44026066377737
H         2.49090587000366    0.51549400936686    0.49283526528160
H         3.58142199964695   -0.72104904911346   -0.12225254607784
H         4.08568384731236    0.96623643445456   -0.10753973918576
C         5.57228535938767   -0.53812139043667    1.54387356784951
H         5.53339510375964   -1.51152329867163    1.05758012287191
H         6.18231750985073   -0.62193566691428    2.43557481755519
H         6.06544315564134    0.15786087382093    0.86635803908073
C         3.25064539776021   -1.08257616120905    2.52603088664126
H         2.23681877865634   -1.01567659997156    2.13853603653056
H         3.19293794964438   -0.92577341449136    3.59966356721091
H         3.61186633008019   -2.09110825515342    2.33248095225946
C         2.66400365312532    2.68917984553071    1.49287821729742
C         2.99991243679687    3.41422141623146    0.33242894199231
C         1.99088792233133    3.86239563324321   -0.50680433427625
H         2.24620943912500    4.42150351966004   -1.39403194124082
C         0.66096989655346    3.61184436273732   -0.22820704366448
H        -0.11190774789929    3.96549640339133   -0.89420159873585
C         0.32999703686056    2.91155223867083    0.91578702557742
H        -0.71043676601331    2.72740819080372    1.13827685399703
C         1.30611152653057    2.44484189907495    1.78231907239053
C         4.43970190581340    3.74672849121667    0.00947709759734
H         5.08507876383269    3.13120675979256    0.64478899342969
C         4.71641779418153    5.21943960557553    0.33375559155351
H         4.74030590510923    5.36793932834319    1.41338772565554
H         3.94857024078145    5.85709250762544   -0.10136620889207
H         5.67766448684673    5.52035835818405   -0.07616296343453
C         4.78788756634912    3.46090918331012   -1.45442124246768
H         4.45975255307367    2.46694727918112   -1.75235267559058
H         5.86476458760908    3.52596242651639   -1.59689292989155
H         4.32004590715134    4.18442880358251   -2.11725834897777
C         0.89225440913110    1.74290309083360    3.05586506699194
H         1.78188504071755    1.29154272821220    3.50669505623742
C         0.32928940786054    2.77728829832308    4.03531417391884
H         0.04962946460313    2.30140005773049    4.97277133181682
H        -0.55686547399810    3.25055047977379    3.61526860079156
H         1.07674880810395    3.54332211639718    4.23338736879231
C        -0.13340118723813    0.63392492791669    2.80998347890162
H         0.17911521331351   -0.01465009813210    1.99425343835549
H        -1.10672061880644    1.04768726688932    2.55754267607221
H        -0.24942349152948    0.02853820218481    3.70682589582528
C         5.71964387416226    0.46884153955746    4.61783311268636
C         5.67825083134465   -0.92827916291111    4.68387877849153
H         5.04592115803401   -1.48983299184365    4.02468286603507
C         6.42996494941638   -1.64506879238009    5.60026575392121
H         6.36388907051253   -2.72335757541617    5.60356617348674
C         7.24016790261315   -0.99356098526888    6.50350947976865
H         7.81987874013933   -1.54381623330896    7.22781273402901
C         7.30255455014287    0.39214425969609    6.47876884014172
H         7.92614230628824    0.89085891577749    7.20136271811795
C         6.57161047094993    1.11856636514554    5.55898344757477
C         7.61730357117689    3.13749171513881    6.27950648665343
H         8.61182398859515    2.73488536187004    6.06113496637110
H         7.39410739939456    3.02999205843626    7.34499264798662
H         7.60049790061791    4.19058565311113    6.00056252951248
C         4.01995055731052    2.73989048181701    7.12920545091766
C         3.80397440207450    1.39293245945373    7.53213579858933
C         4.46214099802062    0.89851550226734    8.64321491205153
H         4.31364009607686   -0.12659769330319    8.94383609413006
C         5.31583984790640    1.68925897740317    9.38989904676729
H         5.83164061174258    1.27784712690763   10.24508200790837
C         5.46723140377206    3.02466368758819    9.05762352007730
H         6.08548761618203    3.64984377940578    9.68460469601704
C         4.82887148100993    3.56520044670135    7.95765572615400
C         2.80714787888297    0.52975180035120    6.78283560720658
H         2.89241763172891    0.75186197673156    5.70882614738859
C         1.38848583538751    0.87618301986814    7.25691988806657
H         1.19020912033627    1.94239194640483    7.16790199672350
H         1.27911899499924    0.60431950540465    8.30515688483750
H         0.64406206454390    0.32874907650776    6.67975711368464
C         3.03294009392453   -0.97338587881568    6.94026205446299
H         4.06907129394141   -1.23088911399496    6.73745776280901
H         2.39730428925564   -1.51346093876759    6.23917070756341
H         2.77434902828428   -1.30621218820242    7.94275963423162
C         4.85916858570863    5.05434370593858    7.68038252605652
H         4.87948678944450    5.19591675356001    6.58420023306718
C         6.04142575788983    5.80940344969450    8.28420866561517
H         6.99219765215540    5.39919077276882    7.95451152393253
H         6.00538950278530    5.78452002697667    9.37099840668113
H         5.99464214034121    6.85226495327422    7.97895170373040
C         3.55805028577009    5.65467826180105    8.23113497736776
H         2.69958483931180    5.10659778771505    7.85197054498193
H         3.46210224742226    6.70384339022064    7.95608395256598
H         3.55323167120109    5.57960983587383    9.31700012760264
C         7.20973767268930    5.48139812640915    3.84891509580620
C         8.16423818131310    4.56103170376358    3.33405540628767
C         9.51489713183846    4.79465560919444    3.51931756708783
H        10.23448448460889    4.09341803428152    3.12333705043838
C         9.97586365750004    5.91933961306089    4.17694626125655
H        11.03478313769559    6.08112874006327    4.31304108197519
C         9.06143724036829    6.85536951467672    4.62352403583214
H         9.43113157076836    7.75269465679168    5.09422572999006
C         7.70020862102745    6.66349954752852    4.47717108465403
C         7.74792115566576    3.39540710702006    2.45845344760760
H         6.66500323488134    3.22552375175162    2.58660100329178
C         8.01457216885669    3.77546290307260    0.99712773730004
H         7.52741336520295    4.71572031231841    0.75769218495412
H         7.64963362810426    3.00322182162076    0.32202314058522
H         9.08370857962205    3.89760715622561    0.83367021312742
C         8.47275557465017    2.08359230418234    2.76868832912005
H         8.38106427463848    1.81328368930785    3.81538594536936
H         9.53017344265383    2.15071002260894    2.52334071708150
H         8.04510910401520    1.27857530462712    2.17367256164680
C         6.72845158885085    7.73272143930186    4.94534505802514
H         5.84662655077257    7.23796210752551    5.37820004593997
C         7.28805958765922    8.65085713994463    6.03305361098638
H         7.74435732820237    8.07346867960438    6.83345213059613
H         6.48268757080359    9.25112188397145    6.45476690940377
H         8.03020562369158    9.33401557468225    5.62714354468020
C         6.28314093556607    8.58550206032594    3.74854131345571
H         5.86697221633167    7.96938911073992    2.95368765064483
H         7.14020769818360    9.11842637708701    3.34175126407683
H         5.53503241977558    9.31675510826910    4.05322538326481
O         2.69489804993712    5.44734691412122    3.77467054373196
C         2.19972933222855    6.22143577186671    4.86283741685738
H         2.79782782950241    7.13954208665682    4.96110345711493
H         2.30166452108757    5.61812512536050    5.76432447052926
C         0.74600527820638    6.56998034817282    4.50919126192348
H         0.49230351129980    7.57466966621671    4.84066649149648
H         0.05795962091061    5.87029546074805    4.98000169434648
C         0.70507459043628    6.43324246366423    2.97775813781479
H         0.02460426974990    5.64012224383432    2.67433442441786
H         0.40051685257970    7.35451321150990    2.48633295463619
C         2.14700895017751    6.05768136801213    2.61181052175115
H         2.20841974063831    5.34449539756148    1.79225317283393
H         2.72651470644908    6.95900020140086    2.36437940721217

