42
CSD_code = DANQAN | q = 0 | S = 0 | Stoichiometry = C17H20ClN3Ni | MND = 4
Ni        5.56365862374773    4.79634993847811   11.57463960865877
Cl        6.54996320096905    4.51157979039317    9.77250964311824
N         6.48239742131412    6.52349533225580   11.98109238243645
N         4.69409205701068    5.04375741546629   13.18435130540361
N         4.50987987442895    3.12648963133854   11.42294908502438
C         6.28493389929458    7.48132103502356   10.87862427376306
H         5.21701838552250    7.65976494280510   10.74284903350245
H         6.69853264877089    7.07175278198186    9.95732741935568
H         6.77743813924803    8.43367880278645   11.09624664123797
C         7.92259817373536    6.31434462258949   12.20017099625804
H         8.42568958300692    7.26263539297106   12.41420333357066
H         8.36707761008672    5.87116280966139   11.30861538724274
H         8.06649388382406    5.64057768685827   13.04619896149108
C         5.86216838404089    7.06509482374907   13.19459925554994
C         6.19779699382523    8.29476376119645   13.72178012933328
H         6.99334019241435    8.88577791810439   13.29210675820618
C         5.49499640844510    8.79361732691771   14.80759313923963
H         5.75769997137381    9.75326726162936   15.22446783241499
C         4.42865803805889    8.07126163683347   15.31753850269338
H         3.83827788492749    8.48603276378644   16.12161102266752
C         4.09782294939283    6.83058508654416   14.81234467611784
H         3.22956618073006    6.31965162783586   15.19244066352075
C         4.85357670109382    6.26766901878059   13.77217795722123
C         3.96276343902593    3.97873659023691   13.62994499485727
C         3.43924884158231    3.76038630403900   14.91384681721511
H         3.65887136346917    4.44359014499432   15.71661014709906
C         2.68280823337489    2.63566084496654   15.17282070195325
H         2.28259051312525    2.48872008706802   16.16558677828697
C         2.43237628216224    1.69339845400037   14.18835958780524
H         1.81970033439700    0.83049355836628   14.39784231961195
C         3.01262677563896    1.84513170571027   12.93858728846523
H         2.86130683978427    1.08532543026036   12.18487320621903
C         3.79020871753710    2.95498775797239   12.67567639690787
C         3.64964811830977    3.01265695403480   10.20262963302143
H         3.68295728003943    3.90724308941871    9.57836427657051
H         2.61360640515598    2.78614579713403   10.45958714803631
C         4.47373232152338    1.82938663146883    9.69208975673860
H         3.91939986519785    0.90781258077185    9.53130395036534
H         5.06803685572018    2.06106444217667    8.81297711684845
C         5.26613476614422    1.90370087685517   10.99861318440390
H         5.11401133117014    1.07301771989349   11.68862691679424
H         6.33449451137841    2.08620962264621   10.88132177077390

