64
CSD_code = DANRAN | q = 0 | S = 0 | Stoichiometry = C24H30NO5PSi2W | MND = 6
W         1.51874425916650    6.49412526042731    9.28784695038692
P         2.52182353177719    4.26863727577352    9.73327935083540
H         2.66460695135159    3.58624587064346    8.50161623479956
Si        0.23535299979322    2.19272572304911    9.67424129336743
Si        1.51376840984169    3.27823155208826   12.53266516223843
O         0.19786208339766    9.17917244622764    8.38684413009017
O         3.90470999677800    7.23190381246109    7.38694003027907
O        -0.88619794182798    6.21203823213353   11.27608160621813
O         2.56804181007995    8.44843916914892   11.49135947485257
O         0.17356322465597    5.20669231374661    6.76468040399806
N         4.12410486200426    4.21776384176982   10.28327850832036
C         1.73368640992709    2.90892613041895   10.65184469583092
H         2.47649244275306    2.10473255211671   10.62120943174875
C         0.73757153998391    1.76203166758085    7.87967137820244
H        -0.02153116116506    1.13723124898139    7.41800653437033
H         1.67335979513237    1.21125779300330    7.83795389292769
H         0.84371223976602    2.64738716936368    7.26049764767058
C        -0.18603191666768    0.53332507006662   10.51849011177302
H        -0.41755379998092    0.65327103058615   11.57044373678105
H         0.63717438080013   -0.17030247553959   10.44477846261950
H        -1.04730890647263    0.07590401690878   10.04395644232442
C        -1.29571744179475    3.31858231910155    9.60749104155032
H        -1.06954008905095    4.27776514770753    9.14954965258471
H        -1.70884989954410    3.51107576036375   10.59077165896964
H        -2.07335078104152    2.84854885377513    9.01276247338112
C         2.37181867465123    1.81477291148697   13.41190127978169
H         2.32297563327187    1.92206996806877   14.49038033094947
H         3.42048302409572    1.74309001458528   13.13604062683661
H         1.90159942591966    0.87038693221370   13.15676300137415
C        -0.29976071195125    3.37887189610887   13.10942094766930
H        -0.88715697971283    2.52529912238364   12.79108524069412
H        -0.79204747890207    4.27558147050794   12.75030875918356
H        -0.33033843619206    3.40795912703880   14.19424482026929
C         2.36668053323350    4.89270346670517   13.06393885920370
H         2.07447625640574    5.17434953015379   14.07141404333004
H         2.09199401538493    5.70968194470321   12.40013111176780
H         3.44701045423928    4.78909064683187   13.05287857462393
C         4.84446337344189    3.01846613223872   10.48732514839786
C         5.79789108320068    2.98982878815261   11.50329240121150
H         5.97437843558419    3.88277985347287   12.08461836523088
C         6.50989043443175    1.83439126213680   11.76027616757062
H         7.24331017887949    1.82470280229407   12.55271841892970
C         6.28132935200319    0.69083362437061   11.01195255367671
H         6.83236814298669   -0.21355094047042   11.21968407312786
C         5.35065994367974    0.71922131625985    9.98820163394413
H         5.18090761433600   -0.16113609884365    9.38578639724074
C         4.64019543594990    1.87591766723805    9.72140504565950
H         3.94398662884241    1.90359377990495    8.89459091630037
C         4.95783588702227    5.34856314341936   10.03109255370828
C         5.83102849531598    5.32328702080814    8.94859059694338
H         5.85542411575949    4.45138402394688    8.30958397194563
C         6.64681979056658    6.40815943968114    8.68890082191821
H         7.31323335224255    6.38576389726083    7.83979143070566
C         6.59894475931432    7.52538399335030    9.50651459942550
H         7.22774744676621    8.37693771193172    9.29539492176762
C         5.74956439579611    7.54300481883982   10.59869988307888
H         5.71944909240171    8.40397877838248   11.24972341927215
C         4.93728522172734    6.45445878873195   10.86882817712723
H         4.31051975303430    6.44296569407307   11.74572812583450
C         0.67798095712541    8.19745068818170    8.72710365885919
C         3.06813506774211    6.90688849093501    8.09379989424018
C         2.28863210896922    7.62800726081143   10.74419067957484
C        -0.02082968810851    6.22637665633530   10.52696829857623
C         0.65462121087561    5.60117259385402    7.72506994391993

