54
CSD_code = DANRIV | q = 0 | S = 0 | Stoichiometry = C18H26NO5PSi2W | MND = 6
W         8.39880518749442    9.19945003224523   11.55613893307943
P         9.33042544729674    7.05183902690989   12.31935257581363
H         9.10829896081224    5.97042470369896   11.45711115091228
Si        9.49987582953048    7.22233684439542   15.42913054694832
Si        7.25673313794739    5.36382971946985   13.86222941578773
O         7.32881455316779   11.91916253235036   10.44004434235640
O         6.95647988981489    7.76119626829436    9.16813367364799
O        10.85705098052043    9.47071838111970    9.62450446544841
O        10.07479576462874   10.86207989594764   13.62017428181419
O         5.74053779584453    9.04080038729798   13.21560658554457
N        11.00510526567576    7.09858754976782   12.13763668426089
H        11.41359469603442    8.01964189860971   12.24765012318090
C         9.01027382528366    6.17513739131851   13.89064493429475
H         9.72669480613833    5.34540828856227   13.87295227046821
C         6.46543234666886    5.46401344896761   12.13063241534889
H         6.95908249275700    4.81614768538706   11.41204774846093
H         6.50418612289978    6.48023696127543   11.74312804151920
H         5.42109862277192    5.16830822098471   12.16614139550651
C         6.03411434019273    6.13362265778648   15.10059105763487
H         5.10816406976551    5.56697617113483   15.09406056881402
H         5.78766272282156    7.15864456837352   14.84889022197552
H         6.41579778987867    6.12081705478353   16.11514468030819
C         7.53841856510774    3.52854501578760   14.31044806216649
H         6.59565590254356    2.99353635680978   14.35335620033603
H         8.01578209948940    3.42777651525513   15.27986289099979
H         8.16662547559232    3.02296612925860   13.58295995856577
C         8.34496701702259    8.70134558040232   15.75119022536929
H         7.45697943698453    8.41033971962638   16.30080757483935
H         8.02345658250123    9.17177144049092   14.82574268459671
H         8.85820329399503    9.45671127441492   16.33891571285122
C         9.47962687460223    6.03156748094455   16.91919794268954
H         9.66836429992431    6.57415529281936   17.83911951704769
H        10.24772454605180    5.27021662240249   16.82804516656371
H         8.52741762524270    5.52449486314869   17.02757160341561
C        11.28992319651572    7.87149383933889   15.26945962273808
H        11.35888128749491    8.70735706591268   14.57998331284950
H        11.97506358348918    7.09848140056916   14.93253419797347
H        11.64692364884861    8.22245430350879   16.23344059602808
C        11.92887888762975    6.06590710151819   12.29730082107354
C        11.56725485267209    4.72970893465261   12.15290168173042
H        10.54537505585812    4.47413679305127   11.91244639425013
C        12.51468125470715    3.73208523982131   12.28732666927972
H        12.21830825195357    2.69996997595405   12.17153212149682
C        13.83369396651820    4.04691881629013   12.56540058521915
H        14.56894624291440    3.26465091188438   12.67361438820425
C        14.20318279272458    5.37539837005298   12.69518670247052
H        15.23087739463480    5.63451156062021   12.90192760316641
C        13.26167772215656    6.37748261429207   12.56367932742934
H        13.55528009850472    7.41372550499651   12.66099928164757
C         7.71133416139440   10.92533670360513   10.85565747585102
C         7.45369580077764    8.25134365532797   10.07136467467537
C         9.97843147057910    9.35249893528198   10.34533917784559
C         9.42843519655647   10.21819754051162   12.92935828512205
C         6.74580876706921    9.07313475277060   12.67098342838006

