44
CSD_code = DANTER | q = 1 | S = 0 | Stoichiometry = C14H26CoNOP(1+) | MND = 8
Co        6.47179716796847    3.02337047256989   -2.70614070679059
P         5.21004328957136    2.72318993650037   -0.91932933434630
O         5.32346007059099    4.51530106228498   -2.86131032170720
C         4.60349575461038    4.58092052812093   -4.02181518421122
C         5.35369123053414    5.29979110371846   -5.15588096390609
C         3.25623592291449    5.27495810540629   -3.76016447460929
N         4.40596734390832    3.16432654836263   -4.44953659239992
C         3.42313843295983    2.83177170812953   -5.45483584089903
C         5.20806956328915    2.30749337405545   -3.89496319643263
C         5.07251778518132    0.87421572004187   -4.27390370762821
C         5.56971666992042    1.28875311347523    0.16215028379140
C         3.40407351357955    2.56326581843302   -1.12595925129363
C         5.34536597097996    4.15340927026702    0.19545009747903
C         8.23329279893413    3.63050166970415   -3.70178217617366
C         8.30613703280800    4.06230697069080   -2.35581667293339
C         8.20894593699254    2.93057115301852   -1.53146297986891
C         8.08197178078403    1.77888915202947   -2.36613800467166
C         8.12908542202477    2.21545203520903   -3.70640404504267
H         4.75504729223732    5.34435963294132   -6.06063154586786
H         6.28431526306830    4.78179308158306   -5.36970675629941
H         5.58158416582298    6.31015767847187   -4.83054579693514
H         2.53557957562094    4.59039675560882   -3.32270306294738
H         2.84060654341550    5.70275559070905   -4.66667245974618
H         3.43905560434067    6.08100068131196   -3.05536686627755
H         2.65714430597893    2.17380784874730   -5.04042269593917
H         3.89531421355302    2.32262915210442   -6.29616109243190
H         2.94676282521526    3.73845454246098   -5.81312258692479
H         4.03781979668052    0.54399058375130   -4.17088521830260
H         5.70755278588258    0.23497473936324   -3.66856089550854
H         5.35131501599443    0.74617311664055   -5.32160295367485
H         6.61083291096001    1.29457321319209    0.47342223230319
H         5.36888018080534    0.36407872292176   -0.37499559264933
H         4.93397812997793    1.33316977656675    1.04511401568925
H         3.16305713003916    1.70600325469758   -1.75048945586284
H         3.01643587786375    3.47100809586190   -1.57790381312233
H         2.95285908156856    2.42825728658769   -0.14321854391806
H         6.34072768065796    4.19937974994649    0.63088363190264
H         4.60370177614093    4.06747588854038    0.98899574148326
H         5.16876618905105    5.05442408479293   -0.38742065071868
H         8.40319824695760    4.25154866032895   -4.56600887928037
H         8.47550664241592    5.07443681634317   -2.02877977469371
H         8.35502492431146    2.91665934874881   -0.46299117067286
H         8.12826266687069    0.75431533370008   -2.03357176968911
H         8.18006548700740    1.58268862206205   -4.57781096827524

