61
CSD_code = DANVEV | q = 0 | S = 0 | Stoichiometry = C31H23IrN2O2S2 | MND = 6
C        13.58695670206303    6.23954985618315    2.07335807190212
H        13.81321520928034    6.79125874116627    1.17818430951574
C        12.66129611221123    6.57930078950395    3.00212740914750
H        12.01138935444480    7.42961210668320    3.02241300338119
C        13.86133634002402    4.52500896895157    3.46645166009232
C        14.47924756202925    3.29392897413149    3.86250890819208
C        15.49203992288208    2.86290772161708    2.94382569888180
C        16.13414591557247    1.68934901923172    3.24034762373578
H        16.90661515449996    1.30629757234203    2.58686351481258
C        15.82684314980155    0.93038811230315    4.39281448064219
C        16.49558551028412   -0.27551883510760    4.68813809229161
H        17.26023936137378   -0.62252681439475    4.00753724283735
C        16.18810435272492   -0.99411768418428    5.80991475127779
H        16.70815618827893   -1.91637038308070    6.02567736178169
C        15.19449433773252   -0.54284881340617    6.69371395010856
H        14.96465328822685   -1.12403868229332    7.57479882439036
C        14.52608096935666    0.62101980219391    6.43877545967612
H        13.75966862855597    0.97553957398982    7.11354297912722
C        14.82078450894558    1.38551745342470    5.28936830617257
C        14.15367064158239    2.58572816069485    4.99692790588687
H        13.38754825080002    2.95067495781045    5.66853185229304
C        18.70656984207741    3.37965752670193    0.76131466929847
H        19.09628157135695    3.98230445797503    1.56250553536556
C        19.44214733965014    2.67384029130573   -0.13079726131780
H        20.50668057384338    2.59154147991367   -0.20728207387711
C        17.04275398328949    2.49880561932907   -0.42685449422127
C        15.65317401628327    2.29487469977470   -0.71248249027926
C        14.79394285169615    3.01911368429888    0.17796821370578
C        13.44496868622221    2.87961585030778   -0.01809801880009
H        12.74137262295218    3.39589814449690    0.62139111791656
C        12.91074157714920    2.06943568422728   -1.04622357384598
C        11.52029917385299    1.93690764657049   -1.24090755710673
H        10.85252979583100    2.46939613122637   -0.57840457499479
C        11.02182745337111    1.15417502217454   -2.24498601838052
H         9.95437971734684    1.06187484734532   -2.38510315209767
C        11.88971158904409    0.46229185612274   -3.10537095176195
H        11.47778276483750   -0.15141878915748   -3.89318332557722
C        13.24242130227400    0.56622855484527   -2.94485965404003
H        13.91775876371878    0.03664887734087   -3.60204705115967
C        13.78783095595762    1.36702258067880   -1.91831640493756
C        15.17244893773670    1.49788842316157   -1.72647497838718
H        15.85629788380082    0.97371212008169   -2.38128578728955
C        18.37256243484921    7.28265354145194    3.52767008299253
H        18.41328338321279    6.65352943487313    4.41368341939073
H        17.91452157077903    8.23591983876359    3.78420727851326
H        19.38311047625464    7.47488962352881    3.17253232876264
C        17.55901779950172    6.59051160698455    2.44632497753623
C        17.44264753954727    7.27507149178584    1.23261993625298
H        17.94167065045636    8.23066162876247    1.16335106530204
C        16.74529388544465    6.84520392134627    0.09939100896538
C        16.78191901552383    7.77840582488488   -1.09989308886471
H        16.19654043204435    7.35349757802796   -1.91179659571992
H        17.80899067436307    7.91823181185140   -1.43140359383958
H        16.37545246405880    8.75144739423010   -0.83062603898434
Ir       15.81854884942889    4.19979559622711    1.46181945919033
N        14.25413809796365    5.09085048360211    2.33914351790584
N        17.36659423530595    3.27767660429365    0.59018702767600
O        17.07206211159227    5.47284943015667    2.74139380113603
O        16.09281581621472    5.78269354923996   -0.03760666400523
S        12.61523738180681    5.40996378091746    4.26962342567248
S        18.41630031868997    1.83847155259363   -1.23794492223992

