92
CSD_code = DANVET | q = 0 | S = 0 | Stoichiometry = C48H36ClN4O2Y | MND = 7
Y         3.52629910091036    3.93355119006260    3.59997965738242
Cl        1.31318230425157    2.59535635581881    4.75013343352108
O         2.89543077561869    2.85791124658259    5.17176591852748
N         2.06553895587693    5.55858888790060    3.88119532856722
N         2.80575332725407    4.05211348563846    1.52278313938764
N         5.47376807291478    3.56009414237968    2.66625463643253
N         4.74841959815807    5.12285980729061    5.00292266969138
C         1.95196220203043    6.30149877349401    5.01871533858974
C         0.68395834763252    6.98567273539863    5.01123993079264
H         0.34417475396207    7.66822936940534    5.76602058381442
C         0.04032501474521    6.61949113187180    3.87526728092023
H        -0.92194577839220    6.94569497937678    3.53069615404858
C         0.90891516147175    5.70985120755369    3.17456405988693
C         0.61913681229777    5.10025568884967    1.94302337779960
C         1.50917892259280    4.32113318087606    1.18645436504237
C         1.21157482649963    3.71022950689236   -0.08240331843773
H         0.25834291315552    3.73331752658523   -0.57425114341079
C         2.34928708341362    3.10606756450026   -0.50819657743747
H         2.49067629496614    2.54454167620208   -1.41164176041247
C         3.35302252251692    3.33307019243510    0.49913492313415
C         4.67880416352837    2.87481862049709    0.43445574025040
C         5.66212099570062    3.02678367257562    1.42574621642946
C         7.04864327678964    2.67026189396624    1.26991960275912
H         7.48787264182798    2.25791301373261    0.38179530043320
C         7.67411650535985    2.98788212290070    2.43116302273195
H         8.71614183518507    2.88279321855470    2.66477732106433
C         6.67658341404170    3.54598429412787    3.30656428073842
C         6.92371695437889    4.04887647499351    4.59497384781149
C         6.00543707503064    4.75714932146902    5.38598069436641
C         6.25010756797544    5.23086075272865    6.72470211644641
H         7.14661904477420    5.06142745038627    7.28950502355688
C         5.13385382128840    5.88897569833541    7.12270504879311
H         4.95355113820552    6.35626896592162    8.07152089585833
C         4.19402610085293    5.82611341086139    6.03188279173612
C         2.91331217966175    6.40106164173975    6.03811171496375
C        -0.91903947968044    5.97841574009498    0.18154567011955
H        -0.05675883605179    6.34733172055267   -0.35480506183574
C        -2.19189420908806    6.17889733672280   -0.32122280916433
H        -2.32271031446068    6.69912469537935   -1.25901539128304
C        -3.29631258149264    5.71668390516448    0.37495264349620
H        -4.28944821194500    5.87218329505057   -0.01990655733933
C        -3.12258255677846    5.05571322516262    1.57978688437710
H        -3.98105977006312    4.69221036436224    2.12547679199567
C        -1.85170227679052    4.85901062397077    2.08848235367435
H        -1.71057137029718    4.33830724256188    3.02475056806775
C        -0.73633324721852    5.31657222857540    1.39208349948546
C         5.03298077108735    2.77118228344343   -2.03769687897351
H         4.71363569340217    3.80111625170506   -2.10292104918409
C         5.40772609204732    2.08310003203383   -3.17743163671851
H         5.37319723626569    2.57660066534015   -4.13780322491161
C         5.82817110654864    0.76626823891487   -3.09044155657543
H         6.11835845664401    0.22947831669221   -3.98144769611524
C         5.87711460415990    0.14104047267320   -1.85553699276939
H         6.20379992285246   -0.88632112393735   -1.78237912631539
C         5.50915679624708    0.82938295637338   -0.71415423558136
H         5.54466272431336    0.34247537732727    0.25016402944555
C         5.07978875144123    2.15174238590744   -0.79205938338986
C         8.76597441417754    2.54084771992751    5.32448388256567
H         8.13926274354633    1.69974486233199    5.06406250255099
C        10.03133153695456    2.33403845091122    5.84248334342723
H        10.39766277563327    1.32687770421669    5.97915170377846
C        10.82837342536465    3.41372433864261    6.18511067651291
H        11.81768842352398    3.25134207991141    6.58660401198567
C        10.35206576119372    4.70240969483052    6.00934007474696
H        10.97136503846940    5.54788513102890    6.27149205112841
C         9.08449428427949    4.91193220579405    5.49771419190400
H         8.71551095186224    5.91660080987209    5.35084939337606
C         8.27684799668475    3.83271559224072    5.14901269848705
C         3.23541795170510    8.31432433811578    7.61065209821775
H         4.06710380272149    8.64199387890989    7.00375622601206
C         2.86697626422906    9.03111214941539    8.73473521966906
H         3.41870036601760    9.91817686469336    9.01033909646548
C         1.79384594374142    8.61528458878606    9.50524996944808
H         1.50922902160904    9.17444497083040   10.38437148407653
C         1.08765435703891    7.47959810629340    9.14461090333138
H         0.25248609287057    7.14908334545834    9.74478278301170
C         1.44928340921385    6.76453715013472    8.01756343535375
H         0.90735410066946    5.87284613752876    7.73832021406646
C         2.52883136829721    7.17405360816753    7.23958658929775
O         3.47803154199648    1.41306871457470    2.83693835326615
C         2.49615921259031    0.65110064891232    2.13814191616315
H         1.60021011000989    1.26594671390449    2.02710540044292
H         2.87746495797315    0.38463992937875    1.14031331411692
C         2.28082674707139   -0.59516931066377    2.98799580611434
H         1.82884590859320   -1.41124645052650    2.42961299751906
H         1.65567106154075   -0.34872578943632    3.84646830346954
C         3.71005318250356   -0.89088662053711    3.43692165713021
H         3.75346610958162   -1.45384570587135    4.36600282041813
H         4.24066652169546   -1.44910153287086    2.66396187419656
C         4.30406501352953    0.51374002114874    3.59074137993343
H         5.33270260027179    0.57124754402255    3.21251652679251
H         4.28808977522132    0.85324267392534    4.63382464477210

