49
CSD_code = DANWEU | q = 0 | S = 0 | Stoichiometry = C12H26Cl2MoNO6P | MND = 6
Mo        2.84145689852629    0.83477639195284    2.02537625207851
Cl        4.00625519084811    2.68547914746783    2.64884828961519
Cl        1.80504283320177   -0.43283108050183    0.36085980662660
P         3.75659775992773    1.19658349169763   -1.19589179268827
O         1.57356717855210    0.95849722538760    3.05358491254629
O         3.88108847651195   -0.31508371977096    2.54982855738824
O         4.16307239958602    1.23032642530623    0.22624067668488
O         4.65818476747682    2.21515351857275   -2.04712379729710
O         3.97376595989424   -0.24174034454321   -1.77821868487611
O         1.87797819386440    2.51389837956784    0.70871124157066
N         2.12475457694133    4.26456243824972   -0.66554399474744
C         2.11711266635976    1.96528500507280   -1.57268442710840
C         2.01593074255075    2.95761622947613   -0.44029225426425
C         2.26512190294470    4.86333904772946   -1.98030221050198
C         0.91777840849757    5.00834964342313   -2.68543811319279
C         2.08073914519370    5.18665609754611    0.46587112483462
C         3.47560456870744    5.65343768686953    0.86406515133183
C         5.97886223833053    2.54504721433422   -1.55985881709282
C         6.90691832192582    1.35126707608961   -1.71285214379975
C         6.44471830384644    3.75670313051452   -2.35162236719013
C         3.79714339974836   -0.65173170354152   -3.14237873130891
C         4.67430530015210   -1.88313714488519   -3.32163808460655
C         2.32900644524361   -0.96157686280015   -3.40054768356685
H         1.32159772585610    1.22742859374287   -1.46145843756199
H         2.12699325838412    2.39491433808997   -2.56830350037719
H         2.70189166270503    5.85329291005756   -1.83712387968715
H         2.96398806340344    4.28176876170016   -2.58541873980780
H         1.05696317978801    5.47942247614536   -3.65473637398144
H         0.24793589777436    5.62819520018025   -2.09497065673603
H         0.44247008144288    4.04199279042618   -2.83136230935167
H         1.44900248058000    6.03268765630662    0.18214570541681
H         1.62409366660984    4.66319667854268    1.30761137982796
H         3.39263141957803    6.38434514026979    1.66269504951866
H         3.99725282965256    6.11380959385351    0.02706847268368
H         4.05340617840559    4.81098700464772    1.23864731613512
H         5.88810608119252    2.79592417074717   -0.49613869674830
H         7.89949380410558    1.60715006619538   -1.35248228622247
H         6.97133957943524    1.05409773831463   -2.75803625435751
H         6.52198294239854    0.51956897508422   -1.12538549313654
H         7.42619947432191    4.06342618674975   -2.00330317058173
H         5.75168065409628    4.58327001113526   -2.22036984077036
H         6.50291362746855    3.51139286280134   -3.40935165958984
H         4.14437439974725    0.15916908490567   -3.79660893294089
H         4.62598972355168   -2.23139916224780   -4.34949923858509
H         4.32783739841923   -2.66922955283091   -2.65708108332729
H         5.70620779903628   -1.65015315029477   -3.07349195834116
H         2.22945062376103   -1.56516357436844   -4.29848931688661
H         1.75073705919803   -0.05104024281860   -3.52836420868454
H         1.93085471025599   -1.51033185055935   -2.55068479634766

