118
CSD_code = DANXEY | q = 0 | S = 0 | Stoichiometry = C45H67N2OSi2Y | MND = 5
C         1.48068817163384    5.46366109483724   15.89909118125022
H         1.29788705783369    4.40163197172627   16.00849085424379
C         0.48282398357964    6.30099070744125   15.44046239669476
H        -0.48819044126591    5.90965914994164   15.18220128833475
C         0.77299965857082    7.65168716087019   15.32861278202903
H         0.03058124977435    8.35423641349217   14.97915819501796
C         2.03297211628991    8.08774870685837   15.68347148545353
H         2.25642560446277    9.13868245585481   15.60777890668823
C         2.99384698738133    7.17585462701551   16.14213101692450
C         4.34333968848821    7.67581983273661   16.61003876464564
C         4.15641612022278    8.28609253904371   18.02652429649883
H         3.94258381984297    7.45280088614865   18.69467586562979
H         5.11071473806687    8.72202657565848   18.33048391866299
C         3.07303260773068    9.31257491025189   18.13492144705125
C         1.77316097553055    8.93405955624686   18.45667790997570
H         1.55776493265274    7.89371367416365   18.65549862607810
C         0.75980198564225    9.87251644043084   18.52842391379994
H        -0.24382935335340    9.56209537987161   18.78078974063469
C         1.02937288247704   11.20758745901736   18.27895184189688
H         0.23838632905228   11.94103672706500   18.33235687473332
C         2.32123637920848   11.59882994111014   17.97146730192848
H         2.54144166825184   12.64034197561845   17.78650075046680
C         3.33401667315850   10.65841614343512   17.90344267392439
H         4.34152650053362   10.97429240348733   17.67283239125622
C         4.91825677327249    8.73793267312798   15.63622376317731
H         4.18565884386945    9.52102017267584   15.44212980116815
H         5.77298899391076    9.21175744170062   16.12417534000132
C         5.37791676979566    8.14265123558421   14.33232695701033
C         4.46979179537515    7.71425758469141   13.37073646632625
H         3.41003086098256    7.82924993998166   13.54420528369085
C         4.90648156533357    7.14112716280034   12.18959579386520
H         4.18522748971627    6.80962672361274   11.45692763627191
C         6.26044754072816    6.99497201428769   11.94338733108738
H         6.59982473187816    6.55331984500489   11.01821251176576
C         7.17540331515568    7.42836481464859   12.88696405186761
H         8.23456188235047    7.32275251814241   12.70200903076902
C         6.73580626024222    7.99722036830225   14.06847111831834
H         7.45910176038206    8.33173965755986   14.79858747926344
C         5.46790351144949    6.59092881666454   16.73704975363253
H         5.60823534939038    6.15724369567080   15.73614772574329
H         6.34857090423970    7.18928969831588   16.97677242458542
C         5.91822844245627    5.68226623550065   18.93777709465999
C         5.18344724094406    5.43758928648621   20.13521663985809
C         5.78227229694917    5.56452489260592   21.37472992030439
H         5.20327412733787    5.37756405645070   22.26763167403504
C         7.09967790245771    5.95865642119832   21.50440122285092
H         7.54667330937728    6.08587140367251   22.47913650898780
C         7.83637700829842    6.17030144350591   20.35749962160026
H         8.87489407289459    6.45141092478212   20.45670164634846
C         7.29908238784382    6.01167441389264   19.08898900169249
C         3.71963955360543    5.04107897500493   20.10918745568577
H         3.36047920280084    5.08197136213383   19.06840337107110
C         2.85213215817736    5.98774870096849   20.94739441244875
H         3.05418951585647    5.86734058801199   22.00901978189687
H         1.79760037589915    5.77278506511647   20.78100901473055
H         3.03821497163105    7.02774007725125   20.68829304234376
C         3.55390043045917    3.60586217889501   20.62006685817771
H         4.15389619388146    2.92286824582123   20.02041996536996
H         2.51064085455401    3.29899128418110   20.56640514314081
H         3.87913318643307    3.53144977286098   21.65630873956250
C         8.28142877686261    6.13442661819621   17.93411176144434
H         7.79363765782118    5.82131578550016   17.01083134648058
C         8.78484811642635    7.57482333444221   17.77751521957574
H         7.96095721145799    8.28101432105395   17.68915094079366
H         9.41282200391788    7.66227542996694   16.89220535903631
H         9.37426324820121    7.86590742454255   18.64395833039905
C         9.49361364160436    5.21007898083480   18.11077262227702
H        10.10805683002419    5.50868485354081   18.95574131725450
H        10.11083222919252    5.24839212892416   17.21485698063411
H         9.18229094231690    4.18029834468342   18.26606734708729
C         2.47545214419639    2.30162351470674   17.49938512658592
H         2.83344415580518    1.69164396932560   18.33902632843098
H         1.68457053744731    2.93758226231745   17.92320923229006
C         0.90182414187508    2.01814993757163   14.76925739649715
H         0.02214658412716    2.58210946167349   15.06584455891902
H         0.58323400168040    1.30404556614897   14.01578045459137
H         1.59718476492423    2.70500038909877   14.29426409132318
C         0.30917319155636    0.00197226530048   16.98892238039090
H         0.68007521499261   -0.59479545610117   17.81671202629903
H        -0.09196098323579   -0.68228425652616   16.24738706291560
H        -0.51731904003899    0.59786284465872   17.36427113652626
C         3.03049196974109   -0.07561300737333   15.57315832696568
H         3.90580863967951    0.47101290069648   15.23367860964959
H         2.65153716491021   -0.64600992461243   14.73082639976522
H         3.34804240171723   -0.79054437641148   16.32688749582494
C         4.75932377535508    3.50036050576807   14.46080623186953
H         4.01721054025437    2.84576604992199   13.98879343787800
H         4.60701361642917    4.49461477186995   14.01627016077797
C         7.77164329371692    3.84190314259169   15.05803748593747
H         7.80182900557253    4.89030269716122   14.77551227632633
H         8.77371715176389    3.44309628848389   14.93102665331251
H         7.51898846087558    3.78169103404893   16.11674847819472
C         6.99396925091525    3.09912986449614   12.17327467083400
H         6.33095552165881    2.54448531801778   11.51671756561684
H         8.00548761192852    2.74861873404766   11.99096512641871
H         6.94808575281683    4.14281171332255   11.87891451526069
C         6.68326076576771    1.03853975183603   14.44111437706776
H         6.42467309033167    0.85202691780160   15.47933682624482
H         7.70567051209991    0.70630244172329   14.28815123361275
H         6.04449093456536    0.41649399647778   13.82273950804321
C         5.80877593797514    0.58009736046370   18.35890337957250
H         5.21778259231943    0.24174196180553   17.50752350092693
H         5.31724880121004    0.25598282446432   19.28696885868868
C         7.27320225551925    0.10011749055499   18.33123948813646
H         7.52881125425204   -0.33893980019984   17.36930339009730
H         7.44738626072614   -0.64607530840133   19.10428197889563
C         8.07855318239725    1.38325877494898   18.59049066720652
H         8.87182151273299    1.24473759919359   19.32059160742803
H         8.51222748187453    1.75233732220933   17.66129310162742
C         7.00317229887884    2.35243058692222   19.08159638082215
H         6.80366411770335    2.19847060157902   20.15173922182310
H         7.21950933783071    3.40632507751774   18.91141289883116
N         2.70163899321980    5.87909768944996   16.24154232739539
N         5.26105888333419    5.55033648538830   17.72455488622990
O         5.84883759099534    2.00502728607609   18.32445621414463
Si        1.69774541326724    1.11444858715333   16.26317811809428
Si        6.47773684912644    2.89569151665690   14.00875182076597
Y         4.29709049122560    3.71099098064965   16.79654375308420

