100
CSD_code = DANXAU | q = 0 | S = 0 | Stoichiometry = C39H55N5Zr | MND = 5
C         4.61181291957711   -1.50788003478388    4.63885009253323
H         5.13142834867501   -1.34828739686239    3.70088843843274
C         4.62571717040208   -2.74725727521577    5.25484220702975
H         5.15640226031055   -3.57750821316997    4.81542326129871
C         3.93326079889224   -2.89076931987804    6.44852586843125
H         3.89974005899938   -3.84181486599520    6.96011874896307
C         3.30666544543933   -1.78190392053031    6.98348098266826
H         2.79350290799312   -1.86871826010436    7.92875116161987
C         3.36846491992461   -0.55603594727498    6.31505407874616
C         2.81857121566721    0.70130542127363    6.96115842651638
C         1.34551590988963    0.48541311181708    7.39384210532866
H         0.76339552547451    0.38886743025668    6.47772206170163
H         1.25905246176692   -0.44259469043120    7.96060206589387
C         0.78474847960316    1.60489481342570    8.22603774829019
C         0.84197518676987    1.55143735554651    9.61483581467311
H         1.28028390487952    0.69036538284267   10.10024069374377
C         0.33872953261498    2.58317891453806   10.38714953983219
H         0.39259806341007    2.52351983632852   11.46466864526795
C        -0.23441912836418    3.68799413840669    9.78095684556726
H        -0.62564595669766    4.49495899726926   10.38285675482084
C        -0.31219440728875    3.74489764100058    8.39996194721547
H        -0.76784061413916    4.59580033969795    7.91537053279297
C         0.18811951996854    2.71007104335757    7.62925113779081
H         0.10837615629204    2.76174267070286    6.55397454846119
C         3.69449621310541    1.01053139398439    8.20600492766935
H         3.29002102817087    1.90266987546142    8.68785756153959
H         3.61034628966837    0.17878278432989    8.90882480356451
C         5.14386667990416    1.23821200340598    7.88147801345431
C         6.02531734860561    0.17284155810208    7.74164507229445
H         5.67093303244137   -0.83858631096392    7.87974350276009
C         7.35793259265030    0.39082479779306    7.44051486428368
H         8.02783204573115   -0.45034501998674    7.33427191080328
C         7.83464833832922    1.68049867114299    7.28311280275153
H         8.87532819625802    1.85103323119647    7.05051419218190
C         6.96992375340426    2.75088847122075    7.43432540868802
H         7.33555004252541    3.76102835846328    7.32207431865175
C         5.63729485975187    2.52961350911103    7.73083141749903
H         4.97039333706690    3.37116817453803    7.85466037229607
C         2.90349526396255    1.89471923148654    5.97615403080766
H         2.51286703992905    2.77221537631971    6.50992471321888
H         3.97940478396573    2.05432736961514    5.78469317952659
C         1.23698047560655    2.61730451425791    4.35879101830160
C        -0.07757392423263    2.20707321751114    4.00373364220375
C        -1.04347892528607    3.15003696897821    3.69515183781104
H        -2.04067716140843    2.82687262976749    3.43320882571280
C        -0.76330983797012    4.50372491884269    3.74413020573733
H        -1.53569581419726    5.23011412351966    3.53923220144862
C         0.52615952519509    4.91300925740706    4.02740316025060
H         0.75040131205728    5.96989506461932    4.01875160399090
C         1.53837730697922    4.00412432737259    4.29711358013512
C        -0.43881754860038    0.73648879455061    3.99939243771341
H         0.42764273615656    0.19158405356206    4.39678317231221
C        -0.68312147060271    0.22763075764498    2.57572979591899
H        -1.39527906073239    0.86253989540318    2.05177246926569
H        -1.08559388034485   -0.78384411525893    2.60634655381990
H         0.26146267505278    0.21295253538508    2.03047978575515
C        -1.66133124748887    0.45611657626084    4.88161121987609
H        -1.54388104996254    0.90188309723841    5.86731169748546
H        -1.79885781705408   -0.61720277097287    5.00236761487192
H        -2.56509435302052    0.86159046088104    4.43316784301587
C         2.96254775244980    4.51625849821641    4.40059692019454
H         3.64075060768683    3.65034336102827    4.39913444211254
C         3.32317580870797    5.32724610464067    3.15062588502632
H         3.12860386446207    4.71793013126799    2.27255445835737
H         4.37947757624746    5.58997258214237    3.17164649898068
H         2.74487362716766    6.24548854499723    3.08612019405838
C         3.18817313726382    5.37107527354935    5.65254549245620
H         2.58068736953509    6.27246676220827    5.60431556199938
H         4.23312501413736    5.66758974989472    5.72574336665833
H         2.91618240587649    4.83691970960795    6.56080170139454
C         2.94510087610943   -1.08313663352413    1.01170959224967
H         3.72488713820672   -1.87798285265383    1.00544618241945
H         3.33023397510275   -0.21379078314171    0.46836065423261
H         2.08936884051811   -1.49165020475010    0.43707204554355
C         2.01700120556581   -1.87979150408650    3.01535931188702
H         1.13500048099732   -2.27822733107854    2.47826564699375
H         1.70916086162096   -1.64280012499598    4.03796371610330
H         2.75163822724817   -2.71374748387181    3.05878916412391
C         4.02940573749944    2.68515856933108    0.74228711948150
H         4.14838312269065    1.88188403667407   -0.01814573297319
H         4.97450942660733    2.80653878208988    1.27613587561893
H         3.83553401553873    3.61551304514269    0.17481562029047
C         1.69478337120180    2.45046430440696    0.97394701257305
H         1.59533368003404    3.38724557811855    0.39361241396654
H         0.86469168457564    2.41510098527999    1.68141013405324
H         1.58862652275543    1.61769706263394    0.24648129403570
C         6.18668883755413    0.44013316776648    2.19520646105913
H         6.80266903634911    1.10259320584857    1.55118622704196
H         5.55918505771202   -0.17340786559865    1.54045128973590
H         6.91124835655540   -0.22413630968553    2.71613489882584
C         6.24824683870255    1.97134521642194    3.97031140379686
H         6.89669620362107    1.33020198831950    4.60473459002919
H         5.67974068153919    2.62850409792686    4.63476847147159
H         6.93058722787491    2.61192524070291    3.37446630435324
N         3.99244622190876   -0.44096849452148    5.14004461487721
N         2.13455605806695    1.63751560749651    4.76934642437733
N         2.54825021447339   -0.71251988714643    2.35120836368592
N         2.95711039073838    2.42819064816816    1.68334767004018
N         5.37771525234637    1.19356266342605    3.12512056676659
Zr        3.31447982712920    1.03149960348482    3.17060467683689

