75
CSD_code = DAPBON | q = 0 | S = 0 | Stoichiometry = C28H36NO7PPdS | MND = 4
Pd       10.37287553532932    8.17107296373146    3.30184749295148
P        10.71184054451855    9.88654508312743    4.69235901413005
S         8.98628793317022   10.57113751917579    2.39087257493954
O         9.00441375978838    8.20715362321141    5.86699419314710
O         8.68215242222056    9.13353152257550    2.36578722728710
O        10.43686443356370   10.80056792738145    2.49949993425880
O        11.46795536787489   12.41093781609798    6.04632060392023
O        10.68489826867026    6.32169102276877    2.08502654995989
O         8.33132080584664   11.30317112214473    1.34330985158771
O         8.25781630366390    6.38154628584114    3.45751114793949
H         8.94636471209249    6.16047549984136    2.80163713126345
N        12.83760263427376    7.00983523424306    1.81370586842620
H        13.62530186182012    7.46357208873672    2.25562163071862
C        11.00737448446995    9.22493073095668    6.37456647708430
C        11.83820981749346    6.93860585797307    4.03810665334940
H        12.80734620656947    7.30229146252630    4.39296543646493
C        11.23954199990667    5.88935493020956    4.95325704117649
H        11.27737730057188    6.25034759606305    5.98376519387410
H        10.19502519732794    5.70286780866003    4.68396075219985
C        12.43415726025903   12.07411965762255    5.15403455862888
C        13.60001168092489   12.79362468141666    4.91767555868429
H        13.79674940226480   13.71494790615742    5.44369875479637
C        11.76397032872893    6.72130249986861    2.60888504915005
C         8.39225990494628   11.16165459600573    3.96449445729396
C         7.19539479038159   11.82702837785298    4.12340917810499
H         6.58599520038332   12.00963823132605    3.25216438297232
C        12.20573816592434   10.88981796438320    4.44817762612292
C         7.04632708860786    6.54241457549864    2.74929962311748
H         7.07735698760250    7.42539825568143    2.10541363253187
H         6.24896849501211    6.66513340398139    3.48483636158507
H         6.82856146921101    5.65401856067020    2.14510219241418
C        12.11310018291826    9.41088245466764    7.18431761313750
H        12.91510288087039   10.05441117655014    6.85407960911603
C        13.13236246113364   10.44712205539298    3.52023904543334
H        12.88987036851792    9.54823252046774    2.96333838316253
C        12.02353113662059    4.57660326756563    4.85958925111835
H        11.60488025061434    3.83485954719326    5.53601024397430
H        13.06736893299629    4.73554547802892    5.12471450420969
H        11.98172268909148    4.18585764155658    3.84539594272775
C         9.98841824073841    8.35061509376569    6.78798414625342
C         7.64625737496298   11.98030096622869    6.47338796860306
H         7.35150956523649   12.30263271998960    7.46221481296168
C         9.23504378338350   10.90008077709837    5.03024656314252
C         6.82025078811902   12.24571019118362    5.39018765580689
H         5.88940221963793   12.77352830247005    5.53558948360128
C         8.84205338362160   11.30391379145791    6.30467747327081
H         9.47578560750148   11.09811893312935    7.15450327544476
C        14.29631652605745   11.15950298917713    3.29157594303203
H        15.01924535565375   10.81643992826447    2.56656136151579
C        11.56711629629181   13.63817316138912    6.72649190539909
H        10.65941698254959   13.71891515043481    7.32256508882408
H        11.61610541997402   14.48021608193492    6.02961063156288
H        12.43886343960614   13.66078315055246    7.38926139004942
C        14.52224316139337   12.33102965346938    3.99281382129122
H        15.42218196752930   12.90180793888284    3.81733606462268
C        11.15767930985531    7.95900165377201    8.83781749123489
H        11.21229044159000    7.47600098086512    9.80215150254518
C        12.18629481921702    8.78334311237282    8.41955981441808
H        13.04514003423398    8.93971446485450    9.05468152798798
C        10.05432374458607    7.73078956538318    8.02760925230523
H         9.27506712689914    7.06466688906186    8.36309246892470
C         7.84041516788268    7.49665280274365    6.23130002661869
H         7.16067055795519    7.60695826985971    5.39095529775816
H         7.38960035390169    7.92203619061910    7.13457218606533
H         8.05695022480253    6.43568001341469    6.38205277212075
C        12.62209483989212    7.35066103756715    0.41158251300363
H        11.91467368434690    6.60599621931372    0.02993833862141
C        13.94449923392173    7.24435907618510   -0.33604142977346
H        14.37104251643355    6.25131745915503   -0.21706924333539
H        14.65491072524082    7.97726693622338    0.04292806468858
H        13.78848345092588    7.43256772561222   -1.39442429295415
C        12.00458516556241    8.74655333797685    0.27888684790205
H        12.71862713868352    9.51782227902940    0.56602110516646
H        11.11281212052883    8.83991461817106    0.91631936362141
H        11.69872996510246    8.92607959125078   -0.74873193514580

