55
CSD_code = DAPGUY | q = 0 | S = 0 | Stoichiometry = C19H27AuClN5S2 | MND = 4
Au      -11.45123627894083    3.89349429784645    4.40484298546822
Cl      -13.69941359589355    4.04691120756299    4.49648612133177
S       -11.35205754768237    4.92382164307731    6.50104305380312
S       -11.50464479279833    2.72762837792019    2.40409983777645
N        -8.76704916293554    5.35785240506596    5.79639763709312
N        -9.44881888192388    3.71949961705263    4.23514094563341
N        -8.97273545343322    2.87118880294443    3.29854293936811
N        -9.28439557910886    1.54147944529144    1.48782034156992
N        -9.74234378089455    6.94012854355594    7.07314974110046
C        -9.83939411511755    5.78482139530899    6.40640692159096
C        -8.55453900261097    4.35389475730451    4.97191529502367
C        -9.76800774229292    2.38100684297149    2.41550666075791
C        -7.11859027341754    4.02255837442697    4.81010110083927
C        -6.67727482080702    2.70510161915091    4.85760990976533
H        -7.38749785126837    1.90788782290112    5.01282787527436
C        -5.33070492577298    2.42285315876963    4.72051030263443
H        -4.99150744775935    1.39827713162033    4.76070923573614
C        -4.41804427139986    3.44814071708845    4.53320645670562
H        -3.36816663739121    3.22299994220407    4.41812042348165
C        -4.85386022478562    4.76216167564493    4.49974625998581
H        -4.14453177237170    5.56459143162149    4.36063938476356
C        -6.19838216704154    5.05148556273797    4.64469383872183
H        -6.54813956432710    6.07161011085368    4.61886788525817
C       -10.07550087723001    1.10486131956919    0.36388879644767
H       -11.10306394233919    0.95311704248508    0.70358685048351
H        -9.67251224471972    0.14402843176181    0.03138393474594
C       -10.06815723932215    2.10589807662355   -0.79378281574332
H       -10.59499135543233    1.65236224661481   -1.63517906906061
H       -10.62551285144274    2.99421605211040   -0.49137748288341
C        -8.66223864320648    2.52110135317553   -1.22953645958559
H        -8.75887385096745    3.09990365220296   -2.15049429864778
H        -8.06423646106769    1.63775862042316   -1.46209452865380
C        -7.94481015751511    3.38055173541219   -0.18223991284392
H        -8.68866030649209    3.97804625074872    0.34881305275408
H        -7.27224972391290    4.07957132068762   -0.68368793224998
C        -7.11777535901622    2.59021055835831    0.83477271484257
H        -6.85330277546278    3.25777323119831    1.65599902155698
H        -6.19157230888778    2.24609267967232    0.37113479903890
C        -7.85159598145332    1.36478939283226    1.40075063520208
H        -7.67735465130474    0.49376875686070    0.76705380123941
H        -7.47086937422042    1.15189247532584    2.40207379820680
C        -8.46739208009087    7.63656283088329    7.08368843587425
H        -8.65147700508720    8.65956972269725    7.41612511949590
H        -8.08437627894126    7.66202183110609    6.06055288937176
C        -7.43423711739668    6.96859039234927    7.98671901088448
H        -7.24578297530050    5.95639505009410    7.64183589379176
H        -7.78205348869950    6.93231984376245    9.01510381031305
H        -6.50424587515944    7.52972343306583    7.95241599480798
C       -10.83193202503683    7.46343899870457    7.86759782939971
H       -11.77151818615950    7.21230805439601    7.36885718915372
H       -10.73410814994596    8.55125944593464    7.89880133269986
C       -10.85557803919288    6.89569879192280    9.28403900721034
H        -9.96271767661537    7.18016037456045    9.83467720835372
H       -10.91897016448832    5.81181340472112    9.24467791454465
H       -11.72589694391963    7.27429974681876    9.81235830556972

