45
CSD_code = DAPHAF | q = 0 | S = 0 | Stoichiometry = C15H21AuClN5S2 | MND = 4
Au        3.95233413413027    2.00529925316239    0.49215662416241
Cl        2.51149034773442    2.17103394867632    2.21647790511841
S         2.10894154232485    1.84437877996801   -0.93058339759271
S         5.78800158925147    2.31765003943183    1.86225081911293
N         3.96503731267031    0.94045218739872   -2.68568495118915
N         5.31652740991349    1.86597850163903   -0.98905133088250
N         6.58963109971728    2.21483485392665   -0.70118914468054
N         8.21548732917908    2.71501786806038    0.80672340763206
N         1.90727015183350    0.02680133543311   -2.84024005763192
C         2.74810857939030    0.86437936431361   -2.22377189620836
C         5.05683765576362    1.52763738400438   -2.24021022435603
C         6.94184050908165    2.41172506121430    0.52049004608418
C         6.09543670446830    1.69282376284702   -3.28266496186749
C         6.29309971419095    0.67613766784322   -4.21176383944825
H         5.71298628047390   -0.22935012128843   -4.13109258155868
C         7.23190419117398    0.82495823191311   -5.21548816695857
H         7.38594606103569    0.02828577092114   -5.92819161877750
C         7.97136385672371    1.99238905159796   -5.30863619274426
H         8.70388857193159    2.10848052749688   -6.09358477514748
C         7.76526827556782    3.01327623571985   -4.39536289255229
H         8.33180408879491    3.92953169620530   -4.47187042615417
C         6.83319208586241    2.86769935314507   -3.38429647545216
H         6.66748992501716    3.66863158197265   -2.68102725744181
C         8.69258683519142    2.95945721831806    2.14157291323477
H         9.33647953163528    3.84058349240093    2.13792872819788
H         9.26612461961661    2.10483769635918    2.51097714500764
H         7.85380625486094    3.13223379953474    2.81092252110250
C         9.22068307911532    2.72132768107580   -0.22926806747258
H         8.77017952175740    2.41635273961539   -1.16924531262416
H        10.02605460109672    2.03125055416906    0.03244018022035
H         9.64037727013823    3.72465285662831   -0.33605194148150
C         0.50495159538641   -0.04787792651001   -2.49278658201584
H         0.41118519943194    0.08640424972008   -1.41204754845187
H         0.14635546355522   -1.04666137240405   -2.75212286123378
C        -0.33564377722327    1.01297231643989   -3.19780467656108
H         0.04163666207297    2.00255187936091   -2.95568616134149
H        -1.36556473770612    0.94302239828151   -2.85986884766613
H        -0.31271965613947    0.87807729956900   -4.27593717101272
C         2.39937987036149   -0.76072034469770   -3.95708131488806
H         1.69908250064837   -1.58213660190500   -4.11839823234544
H         3.37011226491347   -1.17710462866280   -3.67659781625011
C         2.55475123192018    0.05575391621763   -5.23697749296354
H         1.60107290435234    0.46854118205876   -5.55286660587981
H         2.93828060127985   -0.58060045446794   -6.03002221793516
H         3.25404074750817    0.86962971329737   -5.07066724910488

