51
CSD_code = DAPHIN | q = 0 | S = 0 | Stoichiometry = C18H23AuN6OS2 | MND = 4
Au       10.06292418724338   14.56152916817431    1.93315668809638
S         9.26103051675124   12.37922272751143    2.16055296999337
S        10.96695268100817   16.66807179680416    1.67989787175652
O        12.04937570893042   19.14078033262944   -2.43434217876716
N         7.59796715067241   13.13298488932476    0.13792805781686
N         9.04967784909685   14.97265552523404    0.23285336977489
N         9.35506542827268   16.13218057226051   -0.41635198106887
N        10.31692779975860   18.19247025335028   -0.42439456627190
N         6.79651264924407   11.62309963883195    1.60516294554327
N        11.66449644796976   14.06539699679290    4.48288734574274
C         7.78240912601271   12.43748088896728    1.21874026719023
C         8.24724270411779   14.14436941226757   -0.41170227063972
C        10.13631035729708   16.98103977491720    0.13839755929738
C        11.07658012987412   14.25712816547679    3.52339527017926
C         7.90416481906839   14.37213387066039   -1.83053956089157
C         6.59372193855885   14.18298045360253   -2.25896526066593
H         5.84239434527123   13.89659605769517   -1.54003415533665
C         6.26164174449968   14.37497145226380   -3.58677864835549
H         5.24092378520159   14.23409235746944   -3.91053262230955
C         7.23401268938480   14.74699475658267   -4.50055375011039
H         6.97318574071500   14.89910079278031   -5.53740566875424
C         8.54361758537495   14.91744268209182   -4.08277656264162
H         9.30704292015271   15.19494157247621   -4.79459609088067
C         8.88037817349265   14.73073709049018   -2.75519354808709
H         9.90473192711410   14.84831407314921   -2.43723768508160
C         9.82458050043844   18.43743805911660   -1.76681841704753
H         9.44671169697971   19.46375650381842   -1.80292782633240
H         9.02456873351491   17.73304592154429   -1.98837045554326
C        10.98045836125916   18.28316890357484   -2.76223529766239
H        11.32072096617335   17.23625618414525   -2.75862266195772
H        10.66543179258676   18.55814629826888   -3.76980249404205
C        12.53350869712141   18.88862860341125   -1.13397320646115
H        13.34023065811748   19.60253018025514   -0.96401741747245
H        12.93293652403329   17.86465856819495   -1.07076984561069
C        11.42370188712858   19.05986452416145   -0.08856321954073
H        11.79520275456621   18.82294935100514    0.90752621972431
H        11.06005959597467   20.09210555386646   -0.10570618205991
C         6.92950907946562   10.67776350207692    2.69348725773749
H         7.96584694268276   10.33907853974256    2.74585641211741
H         6.29627743592303    9.81761917698331    2.46373518996239
C         6.52295445456602   11.29143494575667    4.03045891172957
H         7.18687657682824   12.11499739706862    4.27880305760751
H         6.59330029993140   10.54362990941239    4.81482070924661
H         5.50167457215131   11.66389299951758    3.99109322335048
C         5.53177123957765   11.65324373370147    0.89354660796431
H         5.31790896747958   12.68660413439115    0.61347705582850
H         4.75597802292779   11.30786314516535    1.57977824113387
C         5.56645222735874   10.77851340467584   -0.35584033746515
H         6.32386219919830   11.14913837535608   -1.04058841629249
H         4.60009748985323   10.80179665335484   -0.85196383079108
H         5.80118991907970    9.74906012965863   -0.09635107367247

