56
CSD_code = DAPHOT | q = 0 | S = 0 | Stoichiometry = C20H27AuN6S2 | MND = 4
Au       -4.51837321791312    3.80981985003595    4.43761515214936
S        -4.44500566557664    4.91716503088692    6.49647077807336
S        -4.59107611560393    2.61605357721662    2.46598625474764
N        -1.83706523786116    5.31007447477074    5.81792392244699
N        -2.51068514501589    3.72485044531083    4.21615646140408
N        -2.01995596778007    2.90975583274159    3.24027996756357
N        -2.34816573494857    1.56130816440587    1.44733845770976
N        -2.82138014287555    6.92950993978691    7.03879561607050
N        -7.56208250200855    3.85489657572527    4.66026854852905
C        -2.91069345432411    5.75886337303540    6.39436603239227
C        -1.61200860510779    4.30515808045771    4.98768761559307
C        -2.82761681608604    2.37681709823854    2.40030124966588
C        -6.42404454443045    3.82675097577735    4.57141451089714
C        -0.18320288142824    3.93772206348266    4.87991824009035
C         0.77779689922319    4.94117655479209    4.81870659760409
H         0.46255444581542    5.97289920827053    4.83314132013539
C         2.11789513381368    4.61454823895152    4.72488097955061
H         2.85880822989306    5.39845940829965    4.66790937986534
C         2.50984402861598    3.28641276523705    4.70417951692336
H         3.55672614185081    3.03189721229597    4.62878437732090
C         1.55678593721117    2.28448239063561    4.78660403992285
H         1.86094148498666    1.24799930529090    4.78437912864664
C         0.21495809113774    2.60516219923648    4.87381046756054
H        -0.52569801356746    1.82379102493919    4.94966760341178
C        -0.91355857051103    1.44523361373719    1.30579590647090
H        -0.72735124068275    0.58348161027248    0.66253722464307
H        -0.48708738976441    1.24543612358894    2.29143447994657
C        -0.25030148099914    2.70066352070818    0.71925151120674
H         0.01591370730724    3.37481339843622    1.53442795399445
H         0.67192821425775    2.39512262113322    0.22172239052637
C        -1.14262939182661    3.46263863422576   -0.26363425583294
H        -0.51488259879376    4.18758585957062   -0.78621735576759
H        -1.88805396414432    4.03093012062738    0.29664181400472
C        -1.86595608289632    2.58189895409156   -1.28870220490819
H        -2.02274105801764    3.16324578683857   -2.19990724860520
H        -1.24261384628881    1.72524757271164   -1.55254011542839
C        -3.23569324100062    2.10677480820763   -0.80197660865825
H        -3.77575067739989    1.63673285801599   -1.62596702015721
H        -3.81710388022313    2.97019512243914   -0.47287819931970
C        -3.15879543715088    1.09946757677126    0.34783786775447
H        -4.16659647352195    0.89752920246167    0.71930006756227
H        -2.72632599835248    0.15938831658484   -0.00678944627587
C        -3.91332243469958    7.47289315241932    7.81624125503366
H        -3.80171809489949    8.55958698746791    7.83811155470602
H        -4.85148828632247    7.23068786466025    7.31013959247488
C        -3.96123464666253    6.92128087253244    9.23853882170726
H        -4.83063295277972    7.32044582867463    9.75310009508427
H        -3.06947753654950    7.19665573507173    9.79533463481338
H        -4.04242900490611    5.83819731971061    9.21167993593616
C        -1.54665673270857    7.62622415680496    7.03650816103408
H        -1.15398001934200    7.61100364137425    6.01658433457348
H        -1.73420913028374    8.66214162619795    7.32462143645562
C        -0.52190472550453    6.99692451561863    7.97598243787407
H         0.41118307689518    7.55118261920922    7.92023216676388
H        -0.33666629100132    5.96848141716005    7.68081433278234
H        -0.87502015922995    7.01173477283662    9.00308826130179

