64
CSD_code = DAPLUD | q = 0 | S = 0 | Stoichiometry = C16H34B10P2PtS | MND = 6
Pt        8.72961159291917    5.95790963323683   18.66883278982267
S         7.74845243632054    0.90424393162016   18.80607648090944
P        10.66732319652602    6.00904519935654   20.13855418153074
P         8.48689762537053    8.35443518383680   18.63633963518081
C        10.72576228816941    5.05384831398643   21.70554369600294
H        10.02964076199469    5.52053137644604   22.40133600752268
H        11.72209727570245    5.06160934053002   22.14477002641601
H        10.39900473344114    4.03245913919115   21.52805275208075
C        11.58434630031291    7.51431185819470   20.71554220427133
H        12.56122874957907    7.22518596257221   21.10137179278483
H        11.01973078630201    8.01441635812999   21.49893329873850
H        11.72369005396100    8.20669066631829   19.88846158243655
C         9.56531751158647    9.58651408180654   17.78238957870990
H        10.59393010840420    9.49683634316833   18.12547068541828
H         9.21262002750295   10.60400591129913   17.93968151838479
H         9.53835167415218    9.36982655906115   16.71545733710831
C         6.84112693913767    9.07167383251049   18.22871503991784
H         6.65054239592054    8.96709926563467   17.16362307105435
H         6.80385258576695   10.12311043242527   18.51122533384657
H         6.07463135542474    8.52323881383160   18.76996575531449
C        11.99110118629717    5.30477225405851   19.09797741954440
C        12.88477823514820    4.31769831551606   19.48754037924089
H        12.84707194951340    3.90957097358112   20.48602802857128
C        13.81990986737903    3.83380688151692   18.58791288639015
H        14.50781435620380    3.06033343484065   18.89637049354729
C        13.87236401389830    4.32957888081095   17.29664055753749
H        14.60061240056575    3.94485745575161   16.59867585285172
C        12.98104342646880    5.31350345940123   16.89789562369942
H        13.01262991728267    5.69621444125187   15.88825293621628
C        12.04514889006730    5.79173912403444   17.79377726228449
H        11.33231215187624    6.55218812644361   17.48747632656193
C         8.55107661628455    8.83701459339643   20.39613563404309
C         8.01615699592995    7.90238637683232   21.28083517444109
H         7.60070325481298    6.98012095397156   20.88417557056064
C         8.01021354399970    8.14485316876650   22.64116494737167
H         7.58958125968401    7.41711131820710   23.31937073470801
C         8.54926154895090    9.32352328643702   23.13383127447133
H         8.55352992712112    9.51499940523832   24.19659966931411
C         9.08388915106814   10.25581906423671   22.26074263823892
H         9.50409105140946   11.17454945979553   22.64390235233368
C         9.08425076781847   10.01701886280799   20.89629224908353
H         9.50978018336497   10.75279656403772   20.23018470514766
B         6.32955173713578    3.62128473309199   17.72440241966517
H         5.26574842177164    3.19664327154223   18.00460312066788
B         6.69468716241781    5.32834803979581   17.90415285000731
H         5.89863659962739    6.08642325739889   18.35181734239930
B         7.46512731925568    4.10492886372583   18.99260410509076
H         7.18723775443521    4.08655327984544   20.14652899112638
B         7.80937958138507    2.66619784356449   18.03321619828245
B         7.32211621049907    3.02276345217237   16.36978274140993
H         6.98542190028769    2.15907108700365   15.63750650807287
B         6.56683444064304    4.63625181224705   16.27794331185495
H         5.66279377159786    4.87862717599731   15.55946751711500
B         9.10991794674296    3.71671921401852   18.56181314688239
B         9.03220168314551    3.08783649500021   16.77092392989896
B         8.24777696907560    4.34458689797041   15.66806305982122
B         7.73856680936774    5.87820006165852   16.59656758328306
H         7.66259108991949    0.25299202327610   17.64866031807317
H         9.92233091208888    3.32480927008716   19.33077900095153
H         9.80043951703952    2.29070675945164   16.35646208148811
H         8.51559644964002    4.38493385210730   14.51800910826126
H         7.69177354795843    6.95987275524804   16.11057016895614
H         9.75955908165573    3.92893571839250   17.44484954352651
H         8.87213200070541    5.35656553234181   16.20395146954643

