93
CSD_code = DAPLIP | q = 0 | S = 0 | Stoichiometry = C36H52ClCrN3 | MND = 4
Cr        4.11210257728253    5.64991708703547    4.45097810183549
Cl        5.45193191944923    7.22544986986490    3.91240776456645
N         2.51055031290608    6.32472322534651    5.09762506683314
H         2.52853490998918    6.52285554260666    6.09713294834159
C         1.18888756410931    6.33959392140355    4.66416923204553
C         0.83034344011328    6.94037644085001    3.44445342211736
C        -0.51142687903950    6.99085185722418    3.09214902869585
H        -0.79846992731590    7.46695152428926    2.16675967144888
C        -1.49030264255723    6.45767542422300    3.90615329563399
H        -2.52902278600573    6.51766262235473    3.61764349182924
C        -1.13385547259545    5.83970995811112    5.09119425918200
H        -1.90399144481302    5.41545151020086    5.71591241221155
C         0.19146240534331    5.75933938534459    5.48063380931585
C         1.85399451899266    7.58677476789631    2.54120851965715
H         2.85382204565442    7.42276026813408    2.96382369646368
C         1.61918871911490    9.09815761363642    2.46603156315629
H         2.40378618626375    9.56957869920228    1.87815368585652
H         1.62719965479718    9.53414762873735    3.46310090156570
H         0.66081204315875    9.32101659682462    2.00247578236347
C         1.83395172376595    6.96224237019058    1.14451041659135
H         2.56903629789077    7.45062217454903    0.50794783771249
H         0.85746905488038    7.07158258731862    0.67809016402334
H         2.07469510535584    5.90226250882073    1.19966515723455
C         0.58332258544105    5.05540857483844    6.76319835800808
H         1.60917955311138    4.67809968299921    6.64495117869389
C         0.53693356564651    6.03988337528914    7.93845497520932
H         0.87633799638163    5.55525173690323    8.85147510275052
H        -0.48306994588526    6.38810500336251    8.08909631565485
H         1.16243318753279    6.91300183078961    7.75819009257030
C        -0.29807084747365    3.84386712320735    7.06985292208988
H         0.15114448289048    3.25864749654388    7.86943953829711
H        -0.39359197029083    3.21026582495186    6.19165902173050
H        -1.29121720468812    4.14471198618871    7.39398769506773
N         4.83817501400327    4.94765904072504    5.76547240758910
C         5.54887382682098    4.29367162555081    6.68327555432468
C         6.42834222830882    3.24142262049476    6.31420975553211
C         7.18701910400697    2.62873430280807    7.29393478456407
H         7.85638327566223    1.82570974879250    7.02871687954487
C         7.10619116757083    3.02606178406435    8.61719880848001
H         7.71130163752791    2.53650612951680    9.36580297049731
C         6.24795542165728    4.04902265360976    8.98364648540606
H         6.19827319067475    4.34529223116688   10.01951753410160
C         5.45995920185575    4.68607779219889    8.04547437018172
C         6.48325960454633    2.81845881718449    4.86846494933473
H         6.33907029859811    3.72284472088562    4.25890824636636
C         7.80338689597655    2.17013501911736    4.46074513736465
H         8.64666009785341    2.78976033493286    4.75684283341615
H         7.82839179724666    2.04852855801032    3.38032077534511
H         7.91356757659062    1.18539830493898    4.90924716268363
C         5.30970172539120    1.87438919345494    4.58303122974348
H         4.37148269631499    2.37868301555507    4.81134634809032
H         5.39064704130954    0.97767782571396    5.19527075495415
H         5.30003516438999    1.58620562705884    3.53415473632061
C         4.51716999637718    5.81106932817821    8.40478284981077
H         3.62196316239547    5.68483419076156    7.78323854019298
C         4.07639091955697    5.80713860035790    9.86681156722808
H         3.28043607145444    6.53539809314278   10.01136165613185
H         4.89829151907759    6.07935019240912   10.52448857651436
H         3.70361589717992    4.82691747177426   10.15590010506977
C         5.16515305409578    7.15521473791192    8.05103313990572
H         4.49043520040010    7.97715276448376    8.28495506972052
H         5.41000273608491    7.19461239750017    6.99008314108954
H         6.08303989362653    7.28880597927026    8.62003492137415
N         3.80192831318011    4.69811845420098    3.13297265813433
C         3.70720554763494    3.78037843475874    2.17239652293789
C         2.59880276644672    2.89895299588688    2.12054241368211
C         2.49815648312240    2.00562447179563    1.06949047358485
H         1.64829566168150    1.34162498187098    1.01833059625273
C         3.46396180090367    1.94532689384582    0.08194027063477
H         3.36393332752952    1.24515150219127   -0.73392812846644
C         4.56471640363453    2.78263454531904    0.14691886458702
H         5.31694097006676    2.72070553230334   -0.62380241429200
C         4.71587001308097    3.69304364933122    1.17525004471280
C         1.53478153298201    2.94670544185949    3.19083000413858
H         1.84989057997685    3.67455824307035    3.95104479106909
C         1.37824029321897    1.58317612832490    3.86852229943445
H         0.67463646492941    1.65542040483920    4.69492118281732
H         2.33276365974836    1.23727182221743    4.25703825149474
H         1.00311358384769    0.84136864243131    3.16777479569377
C         0.19896872143338    3.40692805540764    2.60274496786457
H        -0.55131343301201    3.48722786931572    3.38609968698559
H        -0.15502524649264    2.70140265304551    1.85447509221539
H         0.30411748802737    4.38274677687344    2.13618676803296
C         5.90713755111740    4.61851457471677    1.24402957726246
H         6.08297235215219    4.86212931371966    2.30125879273490
C         7.18702609061141    3.99612865617468    0.68714147017336
H         8.04133580760081    4.61075427221930    0.96223414650805
H         7.15608755120711    3.93398182127304   -0.39817887380224
H         7.33736856244799    2.99696098679966    1.09001799683239
C         5.58673059991955    5.92570343631210    0.51187987493002
H         6.43872758238985    6.60037607130602    0.55782134388049
H         4.73525404142369    6.41529140893558    0.97828653362105
H         5.34899878314318    5.72771263884920   -0.53193672324437

