62
CSD_code = DAPPAM | q = 1 | S = 0 | Stoichiometry = C28H26N7Zn(1+) | MND = 5
Zn        3.35336261815909    9.73972757330932    3.21061866643717
N         1.65924521374802   10.88715121606353    3.47875550707762
N         2.05067061920709    8.93683251049756    1.72977248244596
N         3.74307566415132    8.00292810069026    4.32249953742012
N         4.31240634067736   10.53772919078464    4.90547186183903
N         4.90026714097304    9.78382795469479    2.17047122391210
N         5.92713166346430    9.40058749302539    2.58626624231771
N         6.92702814445163    9.03829105556352    2.97110499424868
C         0.68300569296626   10.63442866555771    2.69579526657331
C        -0.66684338054097   11.22597219843280    2.77728255957249
C        -0.86522760032912   12.59462605280419    2.60949011180988
H        -0.02329242737738   13.23532799116705    2.39451355581846
C        -2.14138462550166   13.12386827806412    2.67883346473759
H        -2.28779131761730   14.18330388977289    2.53705960628457
C        -3.22523763771630   12.29880995974163    2.93053702920799
H        -4.21832783841894   12.71548542938282    2.99061253180508
C        -3.03361937351324   10.93672380829655    3.10042481117995
H        -3.87580676340169   10.29131459726361    3.29592369152997
C        -1.76338099353344   10.39766048238294    3.01409752071704
H        -1.61144730715707    9.33670601771208    3.15009403329132
C         0.92926111218015    9.65433813297458    1.62180149748916
C         0.06551703883083    9.50809364472311    0.53993056393905
H        -0.82513942485539   10.11223072987656    0.46901900764652
C         0.38277047068608    8.58833624069438   -0.44805778865364
H        -0.26729499293665    8.45729615831558   -1.29924623360961
C         1.54986449664888    7.85156247087688   -0.32627303204868
H         1.83591367589767    7.13051796393585   -1.07455035989981
C         2.35710832312483    8.06684865466788    0.78241442701706
H         3.28540851555805    7.52847892381685    0.91228680820816
C         3.43329188492444    6.74634314927556    4.03609522831965
H         2.61828070787330    6.60567662083157    3.33940371861149
C         4.09491556502338    5.66049788037691    4.58594928034353
H         3.80666018373917    4.65683078545844    4.31885485134667
C         5.13103246813135    5.89778561951627    5.47709275228123
H         5.67749655258977    5.07964136796369    5.91961319295318
C         5.45020260309145    7.20678093739135    5.79248391359390
H         6.24471617824380    7.43455153295456    6.48467033880335
C         4.73523010883712    8.24149643403459    5.19250385537614
C         5.03225273443259    9.65051956597225    5.48435309029402
C         6.12852323184640    9.95706777863520    6.42718653253540
C         5.83165541228544   10.41567771215754    7.70813086602306
H         4.80089870374688   10.52037580862335    8.01584209124528
C         6.85420815204966   10.70515106230723    8.59312987173978
H         6.61775350476997   11.04762556813150    9.58874124652622
C         8.17491053634699   10.55498783946997    8.20273079272478
H         8.97033596515139   10.78741564411269    8.89356741699712
C         8.47243196157097   10.10456697412210    6.92697537421615
H         9.49970312694448    9.98737715803893    6.61892974584159
C         7.45687593416213    9.79758777323746    6.03850312222491
H         7.68053018459041    9.45146379839843    5.03925780357435
C         4.58604518553655   11.94086822704646    5.10526733419465
H         5.66769871643837   12.11480187378372    5.04776016739534
H         4.26507081596522   12.23419589745318    6.11139779241180
C         3.86684348801735   12.79315149492985    4.06382648175706
H         3.96284360519529   12.30775477975553    3.08844925513860
H         4.37186498552427   13.75817058001422    4.00093172464346
C         2.39538846019831   13.05481578453726    4.38436201414076
H         2.32227800280539   13.64689408816088    5.29874279883267
H         1.96554192157589   13.64500930319439    3.57318492241069
C         1.54933552777820   11.79086835008735    4.58909476553899
H         1.92971847820836   11.25462842627027    5.46203747692571
H         0.50852206402537   12.08031479803003    4.77338059317534

