37
CSD_code = DAPQES | q = 1 | S = 0 | Stoichiometry = C17H15ClN3Pt(1+) | MND = 4
Pt       16.13086033326906    4.60053582966002    8.07377990810021
Cl       16.45848081382169    4.71293700008131    5.85607654200053
N        17.44486558621954    3.10824332387419    8.23938031778099
N        15.83414592286341    4.49945110578813   10.07948876999408
N        14.80278393172985    6.08769792078454    7.99892840703338
C        18.62050558795268    3.13330700839166    7.60847251704905
H        18.80793685981789    3.98120399073588    6.96223636099910
C        19.55452401214028    2.12281624397311    7.74763204978280
H        20.48876027802918    2.17767148842496    7.21366062681381
C        19.26175187284190    1.05034992398978    8.57512268919645
H        19.96280015601287    0.24081077724659    8.70185519268972
C        18.04552200632263    1.03734781955364    9.24040596713051
H        17.78553527855429    0.21889973919828    9.89239027742866
C        17.15300922293280    2.08076061963032    9.05002624665991
C        15.81597281054480    2.11174869125372    9.75080843277104
H        15.02806031626872    2.19798065754002    8.98900981515015
H        15.66138725458406    1.19113251762221   10.31036762026655
C        15.72327691343237    3.30496897948235   10.66527408297878
C        15.53167929231223    3.20191909585237   12.03405088013279
H        15.45041427227409    2.23413189588063   12.50098147730577
C        15.43414556700071    4.36324792174702   12.78644807626646
H        15.27702977805811    4.30956937260835   13.85196208146277
C        15.54082478123488    5.59417021710511   12.15578988718781
H        15.47034265807452    6.51019641199376   12.71897182468217
C        15.75385573654592    5.62887233251656   10.78678819482294
C        15.91113827379596    6.90741818126560   10.00610813055032
H        16.88622004192682    6.88498584879615    9.49851679564189
H        15.88456141092902    7.76657641426546   10.67387005642125
C        14.83187387904409    7.02550907715210    8.95685310160372
C        13.90472528362166    8.05563298427541    8.98495363019896
H        13.95246333391285    8.80159530394564    9.76205071903360
C        12.93133472191731    8.12413312536708    7.99988452619766
H        12.20980191239530    8.92558856433094    7.99925831483747
C        12.90724513149804    7.14352753191205    7.02091934879304
H        12.16736503794500    7.15398862349848    6.23783110310137
C        13.85893908226437    6.14047610580300    7.05688691504409
H        13.87966064791124    5.36379735445506    6.30305911289034

