53
CSD_code = DAPQUG | q = 0 | S = 0 | Stoichiometry = C22H24Cl2N2O2Zr | MND = 6
Zr       11.58688238580507    6.69178725286354   13.79411606888413
Cl       13.47430956186365    8.04075291438330   13.34225241854253
Cl       11.95480014880574    5.15559640757393   12.03636689345967
O        12.69235084552971    5.63176698024700   15.02368295706757
C        13.40081559129140    6.04975211705475   16.00662256724055
C        13.17337546817630    7.23395547221780   16.68975846218079
C        12.16663973226120    8.17745728777009   16.39480721648517
C        12.18837716262154    9.46175781199605   17.18183446026036
C        14.55612229389524    5.17086214456625   16.41525562928302
N        11.22559673118483    7.92918253787592   15.51720823221504
C        10.33731836271189    8.91379175277148   15.05262745158303
C        10.81708978365063   10.06267393591251   14.41223589577895
C         9.93005833589368   10.95740747183491   13.84360521179318
C         8.56393537674397   10.72989676891295   13.90603604731500
C         8.08411881124941    9.59329185074641   14.53613757266115
C         8.95964713413958    8.68569338498504   15.10494779568471
O        10.47526165086848    7.75643810158804   12.57188151467556
C         9.46739481820972    7.36951938401898   11.88246974199775
C         8.67844231093059    6.27227486103640   12.19124888148545
C         8.87525976031189    5.39125532166779   13.27491940107960
C         7.97706067725683    4.18338672138862   13.33772560379627
C         9.14897877145129    8.17510010239532   10.64724010554599
N         9.75796158199305    5.63786973906416   14.21194397910192
C        10.12207358990139    4.69124409535724   15.18435671665036
C        10.66472072171702    3.45611759553761   14.80998303469067
C        11.13916916823021    2.58902413949457   15.77633276493199
C        11.07774268700584    2.92975024055981   17.11877258826215
C        10.54447932890761    4.15195972136660   17.49444196956344
C        10.07097722372636    5.03271825077119   16.53850463815280
H        13.85447113042929    7.48652991217743   17.48787131395332
H        12.45555759585527    9.26501565148654   18.21726437325287
H        11.22358968262639    9.96299761322036   17.14216004721833
H        12.94340558069635   10.12422171488605   16.76068288439223
H        14.23929535721163    4.12986141838781   16.38921572320676
H        14.93352791724254    5.42513091972852   17.40016193284587
H        15.35403716056946    5.29348068626860   15.68271461476836
H        11.88655316932326   10.21152860592933   14.32873412038301
H        10.30896734157497   11.83465496644443   13.34056089208686
H         7.87646665402760   11.42962902980438   13.45544694855675
H         7.02092188825225    9.40800187804762   14.58021216535186
H         8.58663936209254    7.79159561336167   15.58841772252081
H         7.87015318473758    6.03735728719600   11.51563698570256
H         7.97355744499632    3.74709918077555   14.33422586746514
H         6.96271880848032    4.45397148537300   13.05429930629825
H         8.33491830734544    3.43661250676496   12.63028664474801
H         9.72314640112016    7.76883462957643    9.81450145727611
H         9.46130135207964    9.20576779608206   10.80142734355532
H         8.09300274951025    8.13323540012871   10.39937930664600
H        10.74908631777801    3.21498204489342   13.75758819643666
H        11.56764568671037    1.64368439460161   15.47812344205824
H        11.45438864962627    2.25051053223861   17.86856526860464
H        10.50225419534708    4.42491532847102   18.53864312737577
H         9.66393404603337    5.99279703815231   16.82986449493903

