55
CSD_code = DAPQIU | q = 0 | S = 0 | Stoichiometry = C16H30Cl4N2O2Ti | MND = 6
Ti       -0.00022499729838    0.00001576766418   -0.00010638681817
Cl       -0.93495816032526   -1.94554453696120    0.87383936261843
Cl        1.56233825593765   -0.04535600465877    1.70622300985715
O         1.04745811852220   -1.00991028993597   -1.01894226294493
N        -0.01039935977747   -3.30715929512566   -2.03329000198770
C         2.14521794558761   -1.40026516432200   -1.54279035625107
C         2.23654235856625   -2.56428973098778   -2.30136055615687
C         1.18774472678004   -3.46354336790071   -2.54532686483208
C         1.45157693153899   -4.64285425309006   -3.42946439547856
C         3.34598716733989   -0.53759090714160   -1.30351119447266
C        -1.15857512372324   -4.18463496776581   -2.13455933952290
C        -1.19586613830022   -5.08818986465498   -0.90072037954388
C        -2.40795583649142   -3.31464833729376   -2.20033680122241
H        -0.16850345877302   -2.52531759965437   -1.39096025810544
H         3.19545704693768   -2.79230107693600   -2.73628934895590
H         0.82262279837088   -4.59113139879392   -4.31727578416716
H         2.48998346303342   -4.66373357491076   -3.74383910654589
H         1.22416392933706   -5.57013261597887   -2.90763741314502
H         4.24157081134372   -0.93358121267584   -1.77055250873911
H         3.13799833532677    0.46943550393918   -1.67481958285002
H         3.48756914092618   -0.44588875039512   -0.22217974235202
H        -1.07418976390521   -4.78799732304889   -3.04422025165574
H        -0.30716275308170   -5.71302867459820   -0.84389904661767
H        -1.24665725077923   -4.46779827929013   -0.00875941992630
H        -2.07149470609335   -5.72956902815125   -0.93615151406538
H        -2.49551387857668   -2.73307731613103   -1.28510135478478
H        -2.35486985966132   -2.62307004341333   -3.03730029757063
H        -3.29269273096958   -3.93507308109678   -2.31018974077081
Cl        0.93555365565140    1.94523953386285   -0.87386640124909
Cl       -1.56271566482338    0.04509940314035   -1.70662645338005
O        -1.04764708185154    1.00997839905702    1.01890973663103
C        -2.14532670920277    1.40034048608357    1.54287892696615
C        -2.23656343749000    2.56436922913022    2.30144590161659
C        -1.18772278609441    3.46358381697645    2.54535919869558
N         0.01040533535666    3.30714746001337    2.03329916517506
C         1.15860575790643    4.18460001749597    2.13452301369211
C         1.19589066597880    5.08816471142498    0.90069122184537
H         0.30721689658715    5.71304566357474    0.84391744353182
H         1.24659597839395    4.46778276669251    0.00872184656505
H         2.07155271021510    5.72950250059152    0.93608101257737
C         2.40799431955098    3.31461993851815    2.20026690380416
H         2.49551670915547    2.73303645752426    1.28503867532604
H         2.35494964188636    2.62305372958790    3.03724108011922
H         3.29273327865118    3.93505337702749    2.31007211922238
H         1.07426597292021    4.78796393274641    3.04418599760549
H         0.16845407555231    2.52532180382672    1.39094481133610
C        -1.45148424901175    4.64290109425885    3.42950263052990
H        -0.82249042047826    4.59116916366201    4.31728669358753
H        -2.48987861258327    4.66379193531904    3.74391473856635
H        -1.22407911756052    5.57016802641613    2.90765011143269
H        -3.19544932778214    2.79240790680534    2.73641504497985
C        -3.34610080797230    0.53766554468414    1.30365580937392
H        -4.24166543270487    0.93366113650921    1.77072051118500
H        -3.13808082798170   -0.46935339644485    1.67496312267873
H        -3.48769753405960    0.44592078482415    0.22232867459193

