49
CSD_code = DAPQAN | q = 0 | S = 0 | Stoichiometry = C18H18N8O4Zn | MND = 6
Zn        2.11841297832683    9.63745279055629   17.32591447604648
C         3.74920982800325    7.01543365507984   16.48196752263681
C         4.93395389460084    6.33273927205125   16.25330699880791
C         6.06681456568705    7.07299000110307   15.94920397357284
C         5.97152200036856    8.45030922227796   15.88676378350593
C         4.74078120998088    9.06039093875868   16.14354488802268
C         4.56394374442559   10.50708398168573   16.14358865440218
C         1.92458110808637   12.36553626902749   17.24117472356430
C         1.39516896393055   13.79213923617589   17.26263303327034
C         5.65118601368165   11.44177802860597   15.72338224843426
C         0.55625660215471   10.25181627333105   14.61308718789440
C        -0.58673984395495   10.34187909665940   13.83269084549211
C        -1.71502949144038    9.64658096121090   14.24233682404797
C        -1.65987170930458    8.90058940756550   15.40470517059657
C        -0.47019655377031    8.87001672314881   16.13859746729428
C        -0.33327198390786    8.13814224683564   17.39050517398885
C         2.27561638998679    8.14533560777408   19.61697838189286
C         2.75284063193817    7.38091173349853   20.84671713835600
C        -1.42454149751168    7.24928383579658   17.90186004134041
N         3.65200340340705    8.32951597471951   16.42741639744917
N         3.40868530783704   10.90557690902386   16.54806124201384
N         3.05781711179861   12.19335387867879   16.58899599655118
N         0.42267027443534   13.92842912145185   18.18667715150675
N         0.61475870838755    9.53952974108217   15.72149807998560
N         0.78107705711730    8.32575505511580   18.00802314885816
N         1.09634808038981    7.71810017285112   19.15430237615830
N         1.72738542040251    6.91716751019819   21.59275503457866
O         1.27242144070673   11.47608396479403   17.85375296774889
O         1.78163202017440   14.67953525153309   16.53658638778357
O         2.97164870513617    9.05365608297149   19.12924109342867
O         3.91997667930538    7.21396681785516   21.11725872865446
H         2.83814058506124    6.48361287014885   16.72147813750249
H         4.96778336251419    5.25732141045337   16.31844323099787
H         7.01161370483303    6.58199822314336   15.76833631382437
H         6.83793345316848    9.05035764279515   15.66131640197591
H         6.03410520522216   11.17749057456477   14.73914596843144
H         6.47385294415354   11.41285046289950   16.43660871651475
H         5.24002768837584   12.44827612705697   15.70039311525580
H        -0.03234381124240   14.81289520900248   18.33209001101645
H         0.16494073843981   13.11665613258151   18.72484918178596
H         1.46129924092927   10.77599530326044   14.33885702456967
H        -0.59110884839670   10.93997254776487   12.93610506520504
H        -2.62681292585167    9.68957271244188   13.66481813700594
H        -2.52627971250596    8.35955855581360   15.74884182851107
H        -2.29347740532748    7.83749050571558   18.19429911713890
H        -1.72981470773442    6.53360324781071   17.14056770104600
H        -1.05172080787571    6.71481744307627   18.77160970151124
H         0.79486827021070    6.99039684966829   21.22318809872489
H         1.91643196564657    6.33515442038674   22.39252511109446

