65
CSD_code = DAPSUK | q = 0 | S = 0 | Stoichiometry = C26H26F6MoN2O4 | MND = 6
Mo        1.54284758667351    4.03826031943064    7.16105756670492
F         4.90530196720910    2.93522958863306   10.60879164794791
F         3.30521418938975    2.59053636446922   11.99813884230330
F         3.53463599557699    1.30877695058320   10.28372071456452
F        -1.82157072399607    0.51243011574880    9.53704662537282
F        -1.17152464138294    2.33998422535322   10.46384134325265
F        -2.68832762157148    2.38260247950701    8.93876064564720
N         1.13568643817730    5.52216438856245    8.55637598394902
N         1.71405006221916    2.11970353534302    6.37368699535515
O         3.11607422135057    4.49541487381243    7.01873107978322
O         0.71632714494994    4.67828614209755    5.89118608645141
O         2.12339972968747    2.95686857010747    8.88532354622710
O        -0.20866422388598    3.21963454031943    7.95920182730186
C         3.61305706217168    2.57790995079775   10.69035411622659
C         2.70546894413420    3.50528976384240    9.86291335307148
C         2.59537703422588    4.80171402060945   10.29714871548514
H         3.13123847197523    5.09073875207271   11.18715810159073
C         1.73988691465270    5.75415654052168    9.68927549870463
C         1.51669317061898    7.04152675679731   10.42985924878936
H         1.43633920981199    7.87852612987596    9.73948154315659
H         2.32156266638506    7.22289895224905   11.13583357684791
H         0.58017842112629    6.98051552025080   10.98412589749175
C         0.22941306825976    6.50379867828530    8.06065235814940
C         0.69485182482023    7.44635051156745    7.13134340501501
C        -0.19928312494421    8.38193844587368    6.63280845180420
H         0.14814974373507    9.10749111757726    5.91255880216646
C        -1.52178822871711    8.39520118207810    7.04150688871227
H        -2.20557053306959    9.12630409820739    6.63761853718610
C        -1.96069349209601    7.47532246761066    7.97145931308587
H        -2.98869020395693    7.48457134126411    8.30226968352374
C        -1.09495141557497    6.52389781248988    8.50185494436759
C         2.12326516240408    7.44537208912620    6.68133148622299
H         2.34530782777886    8.35224951264878    6.12405509794020
H         2.30054899491086    6.57817783199482    6.03519330942080
H         2.81117583075320    7.36817058679404    7.52413419263683
C        -1.61827444817302    5.55974962744611    9.52577498143163
H        -0.84490117942038    4.88376595154006    9.88487021584653
H        -2.42052088357103    4.96471631086031    9.09243831577301
H        -2.03246451541558    6.10211386607747   10.37617401668284
C        -1.53532961836295    1.79697620480738    9.28932469645836
C        -0.43514229189789    2.00445836159028    8.23387445296679
C         0.16586277011727    0.89474974128867    7.69804646610710
H        -0.16635096878936   -0.08321305843381    8.00477797667867
C         1.17528866204688    0.98150350167729    6.70621595104255
C         1.59399401796789   -0.28998376046341    6.02468801421278
H         1.47556338943793   -0.19685166918310    4.94612890899627
H         1.00968612065975   -1.13353467880507    6.37871256268208
H         2.64896083282548   -0.48314658660647    6.21434729634024
C         2.64797936699256    2.14023747436894    5.30142710851876
C         2.17544958516726    2.34589747026767    3.99867035832169
C         3.09146824287423    2.35625008245960    2.95480088850800
H         2.73898937778529    2.52330095886420    1.94789467768090
C         4.43868613119332    2.15505301465635    3.19096232605922
H         5.13817206507836    2.16167719884446    2.36884473701876
C         4.89093290778319    1.95133322508551    4.48168819650262
H         5.94435245514950    1.80331748217421    4.66686932282723
C         4.00990264777911    1.94077461483697    5.55471773675586
C         4.51880052511670    1.78637605355700    6.95405254208207
H         5.52230132708048    1.36782020343530    6.95834973295196
H         3.86818931859427    1.16380278063388    7.56719037407594
H         4.55526158447966    2.78028335235422    7.40851100893783
C         0.71746414386362    2.57460624315950    3.75031153490054
H         0.52528001916031    2.71057842292725    2.68947640691708
H         0.40653904708706    3.47736844024388    4.28855896098312
H         0.10967189358010    1.74570501382836    4.11440080527755

