82
CSD_code = DAPTOF | q = 0 | S = 0 | Stoichiometry = C34H35F6MoN3O3 | MND = 6
Mo        7.61446920030835    2.11119023046125    9.95657069418698
F        12.04403606374320    1.52309530300596   11.23877379956267
F        12.16136014613651    3.63336435266038   11.64640521031034
F        11.82381069073383    2.24957079579463   13.25340005484930
F         8.34962544922385   -2.16591794581505   13.10825720833337
F         8.13423223410459   -0.15281073730445   13.83472449082394
F         6.40316052392814   -1.26249821749165   13.20057182152344
N         7.14180771824121    3.32121446172155   11.62587100537793
N         8.34490691217195    0.48622903827685    8.85352756827874
N         6.01750582120219    2.10089512179947    9.24233852219638
O         8.41124168073617    3.36509456545276    9.22830258893127
O         9.48944453215413    1.73477129274212   11.01449510078066
O         7.17059591566599    0.61593902567642   11.29263030151430
C        11.50863580146106    2.50448630611797   11.97003025760096
C         9.98741946286186    2.62027896986621   11.75463515202134
C         9.37002527891817    3.63801796284766   12.44032537013519
H         9.98747236754425    4.25342444313200   13.07654759998091
C         7.98096126513798    3.91317034724390   12.42780117323224
C         7.51906932785702    4.93351155555169   13.43255593732230
H         6.50299872786000    5.26279608396996   13.23248951394580
H         8.18914538276817    5.78980274403740   13.42519058974973
H         7.55275899205667    4.49288062015651   14.42866785836817
C         5.75793550901172    3.64321182151207   11.69184210051716
C         5.25345569109110    4.64522040593856   10.84815825928026
C         3.88577261068402    4.87359283234879   10.83088438130281
H         3.48761599676977    5.62544644140807   10.16621857250477
C         3.03274156701069    4.16254461042618   11.65624542819703
H         1.97006281837748    4.34890227267312   11.62558407791453
C         3.54998928052777    3.23233230483084   12.53480555964754
H         2.89622139045673    2.70161775022479   13.21170408065039
C         4.91351210110117    2.96066592738987   12.57102842438909
C         5.43336814834649    1.96598177096555   13.56690733144343
H         6.50563918854630    1.81713811400497   13.46428432884549
H         4.93581793790182    1.00602283926930   13.43929565784364
H         5.22832903752178    2.31315905973028   14.58001438320110
C         6.17469113993116    5.49630004393177   10.02941226799736
H         5.62177735487680    5.99697828830974    9.23970678853523
H         6.97403876079939    4.89793144558011    9.58737529289933
H         6.63455076071395    6.25886401087359   10.66042215856731
C         7.69049856430510   -1.01791058460569   12.90693667026636
C         7.85069015163333   -0.43810064014025   11.49525879317232
C         8.65316795048140   -1.09427934399552   10.60238099288237
H         9.14650035681191   -2.00469485247502   10.90118803949314
C         8.81719819850242   -0.65493678574420    9.26022635912553
C         9.54247332850948   -1.60095051583871    8.34501015356421
H         9.08538288844221   -2.58778003511843    8.38915563749899
H        10.57273696887018   -1.70021608068013    8.68503366239427
H         9.54157396751559   -1.24651086574433    7.31756720985825
C         8.38139079953134    0.81645165589720    7.47346972967192
C         7.32583041786171    0.39018079052824    6.65659308663616
C         7.33363113504099    0.74917062399098    5.31620377385007
H         6.51754845500016    0.43374665027605    4.68293478410843
C         8.37359717431160    1.49351459883050    4.78865585157819
H         8.36646766842488    1.76737882320079    3.74439978172375
C         9.42937930933059    1.87397760079799    5.59620437053680
H        10.24984844607147    2.43866142250062    5.17937419543368
C         9.45851277755859    1.53803397502213    6.94363384807743
C        10.59620734170810    1.96112360874005    7.81518657638277
H        10.91982725395339    1.16152634764085    8.48072590747817
H        10.25541233343034    2.79457135189096    8.43756116270158
H        11.44075522883391    2.29452779872710    7.21784400570198
C         6.22955842737383   -0.47115643611915    7.21006317273414
H         5.33563810006125   -0.38584770170695    6.59748130873563
H         5.98606016259733   -0.17848794454811    8.23134533065213
H         6.54040635125212   -1.51733066130199    7.21853751664047
C         4.82617164911972    2.24641281682133    8.65436123811926
C         3.68245255312907    1.58578134320545    9.16946689041703
C         2.44343392483632    1.82314592928262    8.60296763980323
H         1.57386999658228    1.33099704838981    9.01575520877227
C         2.30541571380239    2.66776344778360    7.51481441080522
H         1.33028351783018    2.84303528762007    7.08482082889476
C         3.42553660149725    3.27368723224162    6.97070205807192
H         3.32178109795724    3.91493068745171    6.10635692551049
C         4.68187549019525    3.08067128802547    7.51652311695534
C         5.88190766918350    3.71795307081491    6.88614883175067
H         6.08806095477765    3.24851466524676    5.92388255559648
H         6.75923380978904    3.59627632822293    7.52102092878355
H         5.70082044150806    4.77628262109985    6.70820265131818
C         3.81031182386377    0.62498847537433   10.31262112785983
H         3.07107700439961    0.84335317349405   11.08054701191926
H         4.80630303500162    0.68114338044805   10.74860236152481
H         3.63786817063247   -0.39351585486501    9.96083338024128

