29
CSD_code = DAPVUL | q = -1 | S = 0 | Stoichiometry = C14H10AgO2S2(1-) | MND = 2
Ag        1.39257258243717    9.61533279310550    3.94108959994801
S         0.44599458480621   10.04396841129273    1.58376414708837
S         3.22212153071866    8.79998132930416    5.56004067618917
O         0.28664034695491   11.79002551454174    3.47218461049075
O         0.74863365702010    8.12809761744056    5.82490602740312
C         0.01845937114255   11.53238632343382    2.29249781139799
C        -0.69306373069666   12.52189083315641    1.44978200465422
C        -1.09147786969062   13.72549539029156    2.02954692089171
H        -0.86504439842100   13.89201062874268    3.07244612155884
C        -1.75936075551388   14.67523705602670    1.28153128726055
H        -2.06629598864968   15.60634413565376    1.73895144285874
C        -2.03679840061356   14.43618905266708   -0.05495219541379
H        -2.55995799227552   15.17973693484799   -0.64150299393697
C        -1.64251362923887   13.24219057578231   -0.63814738619100
H        -1.85824747840158   13.05537293952358   -1.68144013120068
C        -0.97518830883755   12.28925008840986    0.10720171512740
H        -0.66316270657688   11.35511438179462   -0.33439308898897
C         1.89418266377729    8.00985030865575    6.27604587980357
C         2.14922735837512    7.16738390038552    7.46803164240151
C         1.06602329504381    6.54373935328803    8.08549357195771
H         0.08067556618900    6.69939951078194    7.67137833158691
C         1.25753953479197    5.74872639476799    9.19847281069211
H         0.41177262326030    5.26858831323763    9.67227913573624
C         2.53285565052824    5.56530550195410    9.70858647495108
H         2.68375331485023    4.94211345471164   10.58007115569672
C         3.61446643392383    6.18187060310958    9.09934030965910
H         4.61013432699804    6.03828559336710    9.49674557168042
C         3.42673234628185    6.97862519876508    7.98624076019119
H         4.26022607183129    7.46448786126307    7.50230778666367

