54
CSD_code = DAPXAW | q = 1 | S = 0 | Stoichiometry = C19H27N6NiO(1+) | MND = 6
H         2.19472575165790    3.24901436384046    2.94542294084227
H         3.61526395796582    3.61844099697797    3.68465633014066
H         5.35079886635306    5.82685612987576    3.55925636853443
H         4.49436063097487    7.13038991488490    4.05476292982239
H        -0.36410463557600    6.33291310520718    4.33907655261122
H        -0.65345651792101    4.73918687125388    4.14580422057443
H         0.82841392949795    7.62882975139949   -0.52553883584826
Ni        2.27553185438306    5.64566676798919    3.81832811734684
N         2.07267778971124    5.95224177998232    1.87011086995147
N         2.48300922294873    5.30902389532372    5.95086441920173
N         2.60195611017762    3.71277429839877    3.75553344771639
N         4.59172030541057    6.12169389058489    4.16645533690008
N        -0.01658904673287    5.40483538791000    4.57338939286377
N         1.29956757517216    6.95172213940907    0.05060867120918
O         2.02030668010658    7.43164854753827    4.10025018997531
C         2.15283546954164    3.04988568744726    4.98454532154099
H         2.53843953037369    2.02375043386742    5.05394834444840
H         1.06521400756307    2.99862739533629    4.96259935518772
C         2.64106797145015    3.86215412051047    6.18737910826901
H         2.10737243598629    3.55382435186522    7.09314845468454
H         3.69849989189949    3.64355938546026    6.34210229398371
C         3.65728915758260    6.05625486039884    6.42496082623062
H         3.88096972390427    5.80395352727068    7.47015953509527
H         3.41131317311371    7.11761876469023    6.36545938070691
C         4.90427579907259    5.82501722228081    5.56317325865803
H         5.70938190459786    6.45632076744925    5.96339010311033
H         5.24323946819077    4.78738076561339    5.62935964102724
C         1.27967601979332    5.83288585665303    6.60980452571388
H         1.26376970338000    6.91231991030923    6.45191222535081
H         1.31363672700332    5.63369235546514    7.69007615247464
C        -0.01345668334486    5.24878115874424    6.03120556457216
H        -0.09416684970458    4.18955148341535    6.28252506733609
H        -0.85891367074536    5.76143242517992    6.50749508203629
C         1.10389187470083    8.15052136386836    3.53691121286794
C         0.52226008775003    9.21603366254638    4.26093550762874
H         0.87755526180529    9.39376111799219    5.26470319677651
C        -0.44651533325566   10.01464711855519    3.70507288917358
H        -0.87004249808997   10.82006333877375    4.28541472306309
C        -0.90116321887373    9.78396173842411    2.40878932765297
H        -1.67986094490081   10.39993644810625    1.98935972316653
C        -0.34454371652763    8.76794215315401    1.66692672476529
H        -0.70806096655107    8.58470311975908    0.66606816704364
C         0.66042373249066    7.95292655954475    2.19805688805267
C         1.31523532448690    6.94440869836251    1.40767150701939
C         2.61396366802837    5.32047619750742    0.76929869179476
C         3.53025129308226    4.27971550250171    0.64103113629902
H         3.98549832559620    3.81993952764578    1.50257464619915
C         3.88293411520230    3.87627742730538   -0.63056267930362
H         4.59449238157156    3.07397305235853   -0.75028794338500
C         3.35395416893755    4.48316420910297   -1.76989604251629
H         3.65837279976723    4.13305349201512   -2.74318780868447
C         2.46577934362209    5.53463493456109   -1.67040218486517
H         2.07026186140130    6.02629652112556   -2.54473861842172
C         2.11418618596440    5.94361550425413   -0.39446425659806

