31
CSD_code = DAPZAX | q = 0 | S = 0 | Stoichiometry = C14H12Cl2N2Pd | MND = 4
C        -0.10504199436926   19.24564451601297    6.05901519994728
C        -1.33310639788201   18.67411079461147    5.67816811875791
H        -1.44510477296074   17.60253472762995    5.73335259037853
C        -2.36482548587485   19.46548779020041    5.24315450531609
H        -3.30679579576524   19.03681690899073    4.93507910939679
C        -2.19989236859581   20.86289538949674    5.23417454318586
C        -0.93554591528233   21.36020033663610    5.60964480026535
C        -3.22921203514608   21.78109397485725    4.88789508202618
H        -4.17925250552293   21.38189086519989    4.56543625517676
C         0.65526064274825   24.48349555994637    6.42508335624345
C        -0.35076247481163   25.42625002508776    6.14448292989643
H        -0.15507996354058   26.46798256562903    6.34541734178032
C        -1.55433631016552   25.02649537305408    5.62323336333043
H        -2.32824961179535   25.74254495433140    5.39026158512431
C        -1.79319426781389   23.65403578903545    5.42474404945288
C        -0.73025292822423   22.77246398245897    5.70705190824500
C        -3.03386052222787   23.12079324160926    4.97876718036488
H        -3.82470086330559   23.81264218529830    4.73014900699718
C         0.99588987333667   18.40552424507657    6.59992158846785
H         1.59578156288769   18.01372556294607    5.77719802671627
H         0.60124552237186   17.57335237989510    7.17800661924967
H         1.66047658262820   19.01894491065211    7.21315579993846
C         1.93455555162809   24.89507290009225    7.06167985052662
H         2.39456253170898   24.03470699735942    7.55399909939337
H         1.77070188370082   25.70055468366440    7.77385534627167
H         2.63337092350770   25.23552147632857    6.29650979636266
N         0.09116669173619   20.55282693338277    5.96858024495381
N         0.47520349444890   23.19933710338032    6.15353474921338
Cl        3.02520369889019   20.02608975132079    4.86070146579363
Cl        3.45334392765239   23.02937086460971    5.06443667330461
Pd        1.80275132603971   21.68299321120980    5.69340981392496

