84
CSD_code = DAQBAY | q = 0 | S = 0 | Stoichiometry = C25H52OP4RuS | MND = 6
Ru        0.25510467822697    3.21441962769176    5.09807121506740
S         1.06488730616347    5.37842569845594    4.27031717835563
P        -0.71078183493453    4.36376439091379    6.82412213167890
P         2.41317777637659    3.00417065206899    6.06953096569430
P        -0.64067672790931    1.35420804422958    6.12909205776972
P         1.25394587223189    2.36541068074626    3.21379192211875
O        -3.64263735823462    4.82073517134013    1.53624115983288
C        -1.43706348364981    3.39872382502571    3.94097991417088
C        -1.86043850370284    4.34029061499731    3.05843517455596
C        -1.20805425119125    5.58461471547620    2.69483498278104
C        -0.03945081793007    6.06598259021247    3.13151116992136
C        -3.12159833385614    4.10289568098830    2.36241252867185
C        -1.96171828388735    6.74727391411919    5.93894048264950
C        -2.21038614488436    5.42403411437514    6.64794138962801
C         0.42516480092198    5.45209817834844    7.78748709568822
C        -0.13656293214356    6.21808190938043    8.97850477267237
C        -1.35408813759294    3.18796743747188    8.11834039442074
C        -0.80699723747092    1.77870748747405    7.93022135168952
C        -2.32521329741523    0.62315560782384    5.81224990254625
C        -3.51991529950577    1.49988699723251    6.16577651532186
C         0.11609289185185   -1.14074892569495    7.42278512251986
C         0.27834205654475   -0.26430699400773    6.18632214201223
C         4.27104223060289    1.89213764364932    8.00889600107852
C         2.80653270204189    2.09779133555648    7.64464596724546
C         3.44962598853968    4.53585171157098    6.31212326826178
C         4.88378610090028    4.56350325231203    5.79295238204413
C         3.41918374836837    2.02389813312994    4.86218099547436
C         3.08048577468653    2.48397687818070    3.45264621306653
C         1.03244647949113    3.24308600535980    1.61136622310596
C         1.79264906118351    2.70824880326260    0.40367058790322
C        -0.32447074865700    0.27175515989686    2.29357739777965
C         1.10353084289747    0.59490184148420    2.70411986549685
H        -0.56733988865822    5.55038994911336    9.72222904667553
H        -2.13236460632082    2.55031241163251    3.98001152374156
H        -1.28522601962442    7.38412169415862    6.50406380473577
H        -1.75852741615661    6.17551459796309    1.97227432821841
H         0.32916581283907    7.01800265705899    2.77161245723845
H        -3.61699011396112    3.14762922517640    2.65432562620878
H        -1.52618220374787    6.57280894384375    4.95848248254898
H        -2.90242517807576    7.27872213704017    5.80327334828263
H        -2.93246821134499    4.83498097779513    6.07156616188879
H        -2.61976979554768    5.58584242570199    7.65238742315776
H         1.23986655176740    4.79420415526599    8.11279499904338
H         0.84336074169441    6.14425602446428    7.04774546883097
H         0.66644809698328    6.77690930651729    9.45725723257680
H        -0.90117554733256    6.92656301199515    8.67359215388502
H        -1.09957828524792    3.56348137421724    9.11350335236414
H        -2.44233835465805    3.18941594996308    8.02810038264228
H        -1.44163074469429    1.03889648783091    8.42783101152814
H         0.19708225533648    1.71748646446884    8.35664324403057
H        -2.35433207789853    0.36924729154119    4.74810516377295
H        -2.37843072684414   -0.31655889072749    6.37104207257647
H        -3.36970129958047    2.51950943778340    5.81608164289493
H        -4.42118216600971    1.10677484339354    5.69706234840325
H        -3.68525353687853    1.51911360261184    7.24069885295813
H        -0.92863390216323   -1.36782016469414    7.62076815064262
H         0.63870224908847   -2.08401103506857    7.26891814472340
H         0.53599705095109   -0.66453248881526    8.30541213729721
H        -0.06185578015311   -0.81035346184400    5.29894269681609
H         1.33701674976974   -0.03362939871805    6.03730484890024
H         4.33512260261905    1.33174967606323    8.94132295659825
H         4.79442497286874    1.32599062108164    7.24280381876780
H         4.77904933629029    2.84104697814214    8.15553640955232
H         2.31264567570576    2.66430524021052    8.44345918995709
H         2.31066704648194    1.12553413155399    7.58040494617639
H         2.89928751148883    5.34798423873965    5.83108964840391
H         3.44438781237741    4.72953627507905    7.39021304962397
H         5.50465495003923    3.78423650318835    6.22862011031005
H         4.91196243649105    4.47136753003423    4.71059632462895
H         5.32459838964810    5.52515121533753    6.05227908434681
H         4.48591939768257    2.12800705121999    5.06978745596510
H         3.14183019884712    0.97106367223921    4.98901583012550
H         3.61585403286507    1.89461315262241    2.70189933530670
H         3.33026670414569    3.54448761723074    3.33035237842577
H        -0.04406610392603    3.25492293905235    1.41153171598780
H         1.33039603147150    4.27768131230856    1.81144429072860
H         1.43492138950755    1.72619395813967    0.10366459570477
H         1.64268807369535    3.38588008270867   -0.43500856290959
H         2.86111122610462    2.64878095695618    0.59861559226019
H        -1.00516577988248    0.60783788484653    3.07478911841610
H        -0.59138538272564    0.78568902502370    1.37286313925243
H        -0.45914754510911   -0.79875798183731    2.14353659794578
H         1.80623596200859    0.39824636324719    1.88971964593285
H         1.39596248970965   -0.01896815593695    3.56054475070310

