53
CSD_code = DAQCEG | q = 1 | S = 0 | Stoichiometry = C19H26N5NiO2(1+) | MND = 6
Ni        3.67009639719276   13.82884776508790   -2.98185012551129
O         2.57317359297232   13.65253161043140   -1.53989041616831
O         6.23820949998449   12.13089370771243   -0.25533121272757
N         5.24046443138198   13.28370512741851   -1.87963411582309
N         1.95866602848729   14.35889425702860   -4.21526470011332
N         4.62584095958722   14.11897485543328   -4.66078606226103
N         3.47904500952861   16.17014222081943   -2.57141599211476
N         2.78310098678583   11.68193286042770   -3.63900423091401
C         2.64559848470932   12.77883846138955   -0.59037823006578
C         1.47090606136058   12.43881926492248    0.11913486333868
H         0.55263780282768   12.92943690286155   -0.16582470249761
C         1.49686907445842   11.53238830179602    1.14934752068456
H         0.58078220974717   11.29593336632332    1.66917448815856
C         2.68570383372369   10.90662581303762    1.52615604306424
H         2.68848364893427   10.19016349549427    2.33115039721283
C         3.84933913347182   11.21746943345851    0.86797955904151
H         4.78236355900732   10.75269137743689    1.14653220957147
C         3.85223715851876   12.14546577938218   -0.18342589952586
C         5.08160463276304   12.51877646030187   -0.81118224395050
C         7.21967979140268   12.71185804238963   -0.99071583627909
C         8.58915235765246   12.64413072023156   -0.82217828842917
H         9.02549229700921   12.05822121602990   -0.03088328195287
C         9.35625431805581   13.37732728816487   -1.70867788656122
H        10.43040252500827   13.36065432843129   -1.61882107263054
C         8.76721200473204   14.15546899817872   -2.70309924454125
H         9.40107040281831   14.73440038664491   -3.35677191904310
C         7.39697659649356   14.21592615483553   -2.87070024237089
H         6.96814111282616   14.85976531102231   -3.62053367434179
C         6.60655056416653   13.46145475313569   -2.01064588590752
C         3.77378887759960   13.86786102309462   -5.82919629397580
H         3.66244074813031   12.78991676459660   -5.93863413387772
H         4.22916538797848   14.25600819142283   -6.74996199294191
C         2.41636099060447   14.53969652021591   -5.60534331354096
H         2.52294299076344   15.60652339733707   -5.80569802074830
H         1.67923495079801   14.14553298713640   -6.31339845243063
C         2.41886512934748   16.69332833393457   -3.43245074446894
H         2.86889325173169   17.03014684930190   -4.37032885707227
H         1.90071468205964   17.55546651294259   -2.99170070432297
C         1.37469372517395   15.59810770216277   -3.68163764067930
H         0.91990695364467   15.35431016182711   -2.72039082230076
H         0.59534236045273   15.98013531110994   -4.35408475080851
C         0.97626734942064   13.27249815540576   -4.10768654985791
H         0.11889373425921   13.46124486956712   -4.76825641027842
H         0.62591306972631   13.24906944007452   -3.07470127994626
C         1.57243285039294   11.89967460593276   -4.43737432859259
H         0.80325022523668   11.14168892314002   -4.24286495982986
H         1.82355597364614   11.84161433911613   -5.49798868220092
H         4.88860008830159   15.10528501041839   -4.64901633620936
H         5.48319109992651   13.57506767489227   -4.74337924748649
H         4.25855186083860   16.82046967212763   -2.53054119719174
H         3.11879658798461   16.07717036439169   -1.62195358131329
H         2.51680101946510   11.32865963650916   -2.72159657909792
H         3.36754161690089   10.96988529348649   -4.06707493816298

