73
CSD_code = DAQDAB | q = 1 | S = 0 | Stoichiometry = C36H34N2Rh(1+) | MND = 6
Rh        5.34274845238807    0.71267587622681    2.70474264087307
N         7.40354185784353    0.93764151762515    3.10426480207045
H         7.73232904063766    1.36899134256554    2.23122627582176
C         7.75940758181509    1.87326761670570    4.19390709500334
H         8.82707781928550    1.77953731904745    4.42868844802057
N         5.93061295568476   -1.25550821676668    2.21835045687846
H         5.69176150544793   -1.75536541406539    3.08409208927254
C         7.51487914516529    3.28457493346376    3.72027768141545
C         6.26924913451626    3.65329113176974    3.19510301145432
C         5.07705490268204    2.80575814975483    3.24958173818947
H         4.22969069319207    3.25448734335857    2.73275741996703
C         4.74262407731896    1.96206190536274    4.32406471852261
H         3.67893144886146    1.83422295715013    4.52213145232319
C         5.57641804279194    1.62638924212982    5.47431619682911
C         6.98091339560764    1.59782997183115    5.45573185912898
C         8.55497314601912    4.20298568675710    3.74738455222018
H         9.50839595587838    3.91351441293085    4.16533994769152
C         8.38996912173325    5.47883418772622    3.24138990651766
H         9.20813487794554    6.18083474479061    3.27065290910087
C         7.17522331657777    5.83964920816540    2.68019519519575
H         7.04154309568457    6.82698811305152    2.26682870232868
C         6.13244349342172    4.93688807801577    2.65664624580274
H         5.18224911542853    5.23068637969907    2.23576116635157
C         4.92449838001148    1.33179414924991    6.67884666014681
H         3.84493946633189    1.34705750892085    6.70498373493818
C         5.62873291526113    1.05469594641765    7.83163033302671
H         5.10112263202503    0.84073633640826    8.74783127535765
C         7.01442351075702    1.05453055577006    7.80868976291157
H         7.57563974948951    0.83747173893149    8.70378449129024
C         7.67698613221353    1.32250066886588    6.62489192348351
H         8.75751952806120    1.31204109492303    6.60795276872202
C         5.17130856691733   -1.91281684724618    1.13166882354517
H         5.67248150058109   -2.84457243272701    0.84095954368317
C         3.79864319527599   -2.26843029246627    1.64663946785130
C         2.99014832084780   -1.29368291868587    2.24619373187352
C         3.29314287628688    0.13850149177750    2.23431064636812
H         2.56931190094405    0.71684187307777    2.80716933541979
C         3.88376283613463    0.82082599904108    1.15549170820122
H         3.56770068195475    1.85284934391190    1.00756249131586
C         4.47404428812249    0.23255280415329   -0.04301944715527
C         5.06236656407126   -1.04233289567513   -0.09508558915808
C         3.36489772890619   -3.58510688376605    1.58205830776645
H         3.98969418227989   -4.32733774124873    1.10649968755263
C         2.14938867620840   -3.96006378739310    2.12318388006316
H         1.82602950786080   -4.98711776376225    2.06373247233106
C         1.36238368288222   -3.01230656669562    2.75822159114682
H         0.42035893519798   -3.29821249656394    3.19922913991927
C         1.78052563285466   -1.69919701691809    2.81946329754002
H         1.15348171110824   -0.96154006254477    3.29789209530203
C         4.43181018483701    0.99049729154916   -1.22050647630154
H         3.98502049170267    1.97333861436448   -1.19232306230684
C         4.91784507383001    0.49838940219871   -2.41347336147256
H         4.86381952247007    1.10002069806597   -3.30716834328308
C         5.47306456589547   -0.77057301032242   -2.45958000871596
H         5.85770364458009   -1.16520267803027   -3.38672469422147
C         5.54288617023945   -1.52695316869901   -1.30405954247012
H         5.98484411969227   -2.51246027807466   -1.34157221728183
C         8.02056422930730   -0.40205991438397    3.18290997041884
H         7.77452415849467   -0.81655639957464    4.17036414551284
C         7.40132399214605   -1.29698617011236    2.08848764637333
H         7.65305993373790   -0.88623448297308    1.10096808907961
C         7.97462648461820   -2.71388939599382    2.21266390214567
H         7.55404758303274   -3.36703491272597    1.44800290988891
H         7.71000700550381   -3.12528053240034    3.19051110971878
C         9.49307125770182   -2.69244863988562    2.06033913338273
H         9.88312230196975   -3.70477287645269    2.16439221241460
H         9.75342848731723   -2.33565651343260    1.06172721654495
C        10.12079028580146   -1.78382993832121    3.10859806073054
H        11.20095519427957   -1.74536641582501    2.96881642998909
H         9.92750115072056   -2.18515531339044    4.10551331838801
C         9.54387218091338   -0.37442495979105    3.00785773411144
H        10.00706318540666    0.24892131853771    3.77268837174468
H         9.78704351728744    0.05279998262329    2.03125081118506

