83
CSD_code = DAQDIJ | q = 1 | S = 0 | Stoichiometry = C44H36N2Rh(1+) | MND = 6
Rh        1.54579958004651    9.94160054680346    0.26641832310164
N         2.12229491379943    7.92922010123965    0.14023845825746
H         1.64771604389643    7.52931358998942    0.95890783424076
C        -1.79204913499625   10.03102026018560    0.25476262883528
C         1.49682123485119    7.33296886707500   -1.05475509744011
H         2.06301045639405    7.67710772959692   -1.93121148958916
C         3.55601075391328    7.61454620534393    0.29874636064328
H         3.72563745188675    6.56512138044585    0.01627303970352
C         0.97994819323536    3.74139192152716    0.06289984676028
H         0.59608835520574    3.21133205479909    0.92095048753510
C        -0.04650202787886   12.26290757817321   -1.09021638844149
C        -0.64552261126844    7.30528623054131   -2.36483021861754
C        -1.19669519234224   10.01533060212578   -1.12990679974719
H        -1.88206090473384    9.47667997907160   -1.80071929426207
N         0.11854963596718    9.34469072870211   -1.14801120559078
H         0.57165624431464    9.62448839683691   -2.02658792420605
C         3.92389542044396    7.79031756000435    1.75086329461719
C        -3.04437062306200    9.46654171225683    0.45323813666834
H        -3.56639747720594    9.03343471411777   -0.38814837042029
C         0.04933642044181    7.87145185105513   -1.14704911564499
H        -0.50372764008084    7.56724761096725   -0.24767158575829
C         0.71051491368790   11.95159122482859    0.12445008446941
H         1.45759576107052   12.71134212226337    0.35108093165940
C        -1.77910609404421   11.85472239660488   -2.72403755119798
H        -2.53216027169842   11.19974360615993   -3.13799721329004
C         3.12719259993512   10.19414771786516    1.75298615606858
H         2.88455827578656   10.98570372788083    2.46107429091064
C         4.37811062723819    9.89439870140370   -0.46730649931723
C         4.41932718795044    8.49310196705882   -0.57108373636260
C         1.49359413356878    5.82095042936055   -1.03361837082348
C        -3.62761776770498    9.44059723297232    1.70684346744014
H        -4.59926862015234    8.99193737719877    1.84095276660356
C         5.27438398578260    7.89640454889363   -1.48734511064034
H         5.30154962351703    6.81827266281321   -1.55799697076172
C         6.08204312869735    8.65571431420842   -2.31418065088238
H         6.73469074116129    8.17189372279408   -3.02368374223226
C         0.16594376166376   13.51031315712596   -1.68614949100197
H         0.92279917883091   14.16419997723818   -1.27865889616704
C        -1.02085666229806   11.42169059553779   -1.64581514761174
C         0.19030676707483   11.27163251915077    1.23993803539111
H         0.59267216209516   11.56104297028218    2.21046241123458
C         3.55254806460126   10.63144734167734    0.48661252473980
H         3.59067152928865   11.70988365182718    0.33583812868699
C         3.61576264642931    8.98384615029264    2.41857020532100
C        -1.70559572125520   10.54801365920034    2.60367410086840
H        -1.18763068891679   10.98088889025532    3.44681670031333
C         6.03728663406164   10.03855842249366   -2.23190093057565
H         6.66038516140107   10.64109374241176   -2.87409887375062
C         5.19229961841656   10.64438200193327   -1.32595155578411
H         5.17014458045427   11.72202470925409   -1.25669538424493
C        -2.94958131959339    9.98188427096223    2.78777547854716
H        -3.39203290910886    9.96103513325788    3.77147928524667
C        -0.58859740295919   13.92943510060763   -2.76219602812736
H        -0.41008053147594   14.89964158719115   -3.19890879026443
C        -1.57671088712016   13.10536847207573   -3.27748503902206
H        -2.17434638226964   13.42820537592667   -4.11513484688182
C         4.50358659542908    6.73686383371412    2.44297260011032
H         4.74024109704408    5.82405210123444    1.91563028430086
C        -1.10507293201679   10.60313259201966    1.33914279817322
C         3.86458310683697    9.05454946733311    3.79301834962099
H         3.62254744078993    9.96338966806073    4.32387774872779
C         4.77205794413517    6.83865136162394    3.79535704899164
H         5.22429259594201    6.01181588339894    4.31956638123876
C        -1.66498225187979    6.37504355073013   -2.21088312394627
H        -1.96871047064982    6.07444230756459   -1.21834538315878
C         1.93653334666535    3.72715335223550   -2.13363146690962
H         2.30131568978831    3.18644805477068   -2.99306191724146
C         1.96150427195414    5.11056130076250   -2.13111242901846
H         2.34411106592268    5.64389653083685   -2.98948436267054
C        -0.25997743402917    7.68235487413025   -3.64628166308957
H         0.53672151054016    8.39992160541426   -3.79449476361389
C         1.44744934658122    3.04026102740468   -1.03575315771234
H         1.42925054330874    1.96169390835225   -1.03571747564187
C         4.43820009254612    8.00044742970413    4.47336407128490
H         4.63032799013467    8.08441865679573    5.53156129283402
C         0.99920710655048    5.12456965446855    0.06341312961084
H         0.62082188812523    5.65359560943088    0.92860751985480
C        -1.90435465112222    6.21381480062013   -4.59135993309717
H        -2.39239722299792    5.79129224625759   -5.45562275380649
C        -0.88926867158614    7.14155000856892   -4.75314421495709
H        -0.58362021697451    7.44343645778363   -5.74318408668226
C        -2.28988795262124    5.82980565847628   -3.31833491289287
H        -3.07981474535988    5.10692895643921   -3.18580023951855

