40
CSD_code = DAQFIL | q = 0 | S = 0 | Stoichiometry = C17H21NZr | MND = 13
Zr        7.27577246017728    2.08045031590768    2.53102824562199
N         5.42693842618514    4.94329420871533    2.53327009979249
C         4.80557792402031    1.99004913999505    2.53019032940879
C         5.32116417659969    1.63678749103581    1.23729130434498
C         6.36645818601744    0.71107712567684    0.92674360030741
C         7.01031589814037   -0.21512143740777    1.82891215138944
C         9.66040250546592    1.43915611781379    2.53160789258833
C         9.45041658657214    2.23972096501608    1.38504645140731
C         9.14426550560581    3.55030390152400    1.82219025789478
C         6.06807669045055    3.93803180860895    2.53256957875805
C         4.24889833240477    5.73278073563150    2.53213474303685
C         4.67864729835265    7.20452801402357    2.53217334707017
C         3.43713672458387    5.41808458571671    1.26929959143597
H         3.86641319302017    2.53451207330109    2.52971282546774
H         4.80464463787674    2.08182244048576    0.38603852748186
H         6.54619806217686    0.53672015320579   -0.13658011123686
H         7.61629594621055   -0.98434650105888    1.34995355600560
H        10.02871174079407    0.41954968536182    2.53286582201744
H         9.64374228974525    1.94154936426987    0.35885744843062
H         9.04212394529299    4.42413374631298    1.18745076257756
H         3.80491565651227    7.85110337274219    2.53140108437844
H         5.27642853615419    7.42249869776345    1.65000043563988
H         5.27523248313841    7.42296295580551    3.41505560136798
H         4.03045097092047    5.62245714191208    0.38058844155947
H         2.53983222914661    6.03136865600563    1.24157771032939
H         3.14644859656099    4.37033081844817    1.25414321100297
C         5.31976147399234    1.63669964720971    3.82351168863086
C         6.36540485345070    0.71168029915497    4.13515012418132
C         7.01007147286347   -0.21469002148292    3.23370659829613
C         9.45081202158960    2.24270503101302    3.67615946313627
C         9.14460541279972    3.55214546633606    3.23570661066999
C         3.43499953503222    5.41884819039577    3.79375543495672
H         4.80236934733636    2.08172133594109    4.67423719493770
H         6.54420817028823    0.53751284602270    5.19865859974382
H         7.61572041681687   -0.98376924602153    3.71334791257840
H         9.64452236593486    1.94721360592038    4.70305418383348
H         9.04265605421261    4.42761606987808    3.86819818915500
H         4.02667031494209    5.62378297289910    4.68344220572579
H         2.53768231618958    6.03219853223857    3.81944752769448
H         3.14420724242373    4.37112969368299    3.80900135837967

