66
CSD_code = DAQGUY | q = 0 | S = 0 | Stoichiometry = C37H26O2Ru | MND = 8
C         0.04281277143573   -1.97614467515189   14.34319465347808
H        -0.42026611275423   -2.94893688729292   14.27045784673901
H         4.47433429187054    1.28977488172828   14.16785954547733
C         4.52647855735322    3.01634497377365   12.52340005347523
C         5.46620908511355    3.30080939721199   14.96754986937624
C         2.18255917355491    4.15369274998997   14.36611036262827
C         2.59577466387331    3.80905386818373   15.69373205568409
C         2.42026312736290    2.39457061812826   15.86936796057475
C         1.83553267157503    1.87085468544700   14.65594740175148
C         1.71100883753886    2.94878071642697   13.72761637669102
C         1.01886886537560    2.87320014053656   12.42917298001851
C        -0.02735054856755    3.74497660972556   12.13740165558450
H        -0.32666878197234    4.48733096935884   12.86388665706282
C        -0.68700232015280    3.65635224331998   10.92532201011113
H        -1.49519674982282    4.33890766466395   10.70734849581332
C        -0.31641530138651    2.69829875095593    9.99720497095047
H        -0.83293295174763    2.63362477144730    9.05120035208873
C         0.71979422147394    1.82427338796488   10.28412589929116
H         1.01417658401942    1.07705539905355    9.56246180429804
C         1.38551298298602    1.90999562635989   11.49125468735479
H         2.20730429446229    1.23910162567844   11.71473195532026
C         1.23960408740628    0.53108896342915   14.52048463117322
C        -0.05637110187221    0.40016391835352   14.02487499451770
H        -0.60623372597032    1.27852866981338   13.71811710785573
C        -0.64589463637384   -0.84710753709985   13.93420308382382
H        -1.64961175129648   -0.93472198485073   13.54485485834734
C         1.32795493282412   -1.85259239006242   14.84536423633184
H         1.87078401801013   -2.72940797775279   15.16573628843430
C         1.92431035949592   -0.60975449741654   14.93408806122747
H         2.93416266919049   -0.51659489669854   15.30914143863387
C         2.50883370153343    1.68758522759609   17.15995207478598
C         1.40350449348912    1.00470400121329   17.66215370050730
H         0.48478240713096    0.97862088107375   17.09308794573648
C         1.47756794802116    0.36853213627608   18.88760836914540
H         0.61554216457867   -0.16047772860816   19.26678047100350
C         2.64722474984645    0.41191912902594   19.62717558977931
H         2.70093534257881   -0.08531116777123   20.58418152987077
C         3.74920057059037    1.09214442167561   19.13481764101402
H         4.66508529725465    1.12569805253626   19.70584673916735
C         3.68328060644731    1.72389445468175   17.90809861228392
H         4.54921585186997    2.23995484608026   17.51026245970587
C         2.96650708274824    4.77511666785367   16.74154605799082
C         2.37327643298498    4.70077146303887   18.00011764873482
H         1.65275511376572    3.92319211167257   18.20904550759056
C         2.69502367309443    5.62392131077095   18.97787468143473
H         2.23011776307356    5.55331445984560   19.95017931622387
C         3.60434049998013    6.63353767082082   18.71327842865965
H         3.85544261426701    7.35119478106722   19.47992128070563
C         4.19017582611414    6.72058526396378   17.46091829791879
H         4.89954971840447    7.50605914571845   17.24729517352857
C         3.87438084490330    5.80031170491908   16.48069408400545
H         4.34085444855056    5.86759509266864   15.50605744727158
C         1.97511643035166    5.51410372712232   13.84511470889337
C         1.34375726227519    6.47110534145075   14.63757494521196
H         1.02720014335962    6.21465437218554   15.63867061498903
C         1.11193430082302    7.74178160060773   14.14511726880770
H         0.62453103344801    8.47484157568760   14.77098200708259
C         1.49677113112637    8.07265364824777   12.85700683775555
H         1.31433441199338    9.06606274770370   12.47528411019821
C         2.11632437670243    7.12427852713290   12.05996557719189
H         2.41893386705458    7.37472190872117   11.05416127035361
C         2.35560502886754    5.85457132860000   12.54882653802461
H         2.85144479161567    5.12130936814519   11.92672230838082
O         4.87564142270212    3.23363702513116   11.45032762985596
O         6.41519497496918    3.71181029452416   15.46856943513296
Ru        3.88091146048091    2.70648482339629   14.22817139694278

