63
CSD_code = DAQGUX | q = 0 | S = 0 | Stoichiometry = C21H29B9MoO2S | MND = 11
Mo        8.07221624495024    4.14133625022812   11.41037649306847
C         9.64413382235186    3.82759451225503    9.88595325702654
C         9.65714695303806    7.26642243802671   11.55648457211499
B         8.62194814386645    4.78399872717287    9.10323433872119
H         8.17959113244983    4.36284831955018    8.08631080831013
B         7.82462994277822    6.04884564659059   10.01451020884871
B         9.33577648658723    6.45071867313309    9.07806903715422
H         9.41374748495374    7.05976674404740    8.07271809837588
B        10.43766329254256    5.18683797626789    9.29640563258684
H        11.30703769467284    4.96214219810237    8.53758667824203
B         8.15492833370375    6.43324814625832   11.69257864947091
H         7.42729336713751    6.93816400973363   12.47985605460249
B         9.72576343503869    5.73823399215243   12.12528042965765
H        10.20029170756708    5.73400337487642   13.21607403896705
B        10.67083399570142    6.34411248054277   10.61602722907978
H        11.75572555985892    6.80066621614802   10.58005517839760
B        10.41028206927330    4.52123547114694   11.07749160142633
H        11.30468126630825    3.90526820248182   11.55552280709657
B         8.69356108968877    7.52101295571032   10.33782986620660
H         8.31292422476067    8.60621292383774   10.08315372748123
S         6.12982331989138    6.56862613630838    9.15213189923884
C        10.01313868990171    2.49318898207386    9.37042423908065
C         9.05294317029808    1.62072462816093    8.85691698300362
H         8.01749202009292    1.92606527167817    8.83293929191997
C         9.39787550646350    0.37040943236341    8.38065993180129
H         8.62998964666509   -0.28441973783918    7.99460713906914
C        10.71863834257470   -0.04513429933132    8.39643776813700
H        10.98890904865112   -1.02360582174614    8.02772119611732
C        11.68893558952470    0.81267142213109    8.88501048543510
H        12.72534382365616    0.50602227213120    8.89431705622422
C        11.34228408332906    2.06357922965778    9.35972677070636
H        12.11582658290858    2.72217105297496    9.72479140671281
C        10.08849276406585    8.35348683224540   12.45951981614301
C         9.20092718283835    9.36194504702868   12.83452607637631
H         8.19042414402407    9.34833330298158   12.45469625855276
C         9.58829815150705   10.37412407245290   13.69231975459338
H         8.88028218509216   11.14204823843218   13.97015737391915
C        10.87780481545169   10.40839259794447   14.19459770453565
H        11.18282899265208   11.20099880050115   14.86181143014759
C        11.77119761002929    9.41323288478816   13.83559271013660
H        12.77892598549123    9.42680570298825   14.22582226895713
C        11.38004784984335    8.39757629352621   12.98395713904288
H        12.08566705788722    7.62400762620745   12.72144955497447
C         6.82487312541220    2.84273523591308   10.74891162464531
O         5.98978973121518    2.08489791554168   10.48082829800069
C         6.44741819206792    4.49146678610051   12.43973765893970
O         5.33174032749766    4.88816554587168   12.64401603050480
C         8.38311498600389    2.05995977253596   12.37488671608627
H         7.50513905231411    1.43315075404640   12.51963671256461
H         9.26088089671276    1.49108284939115   12.07825650138829
C         8.58385348005497    3.15884640779068   13.23689086901467
H         9.50293252253422    3.31274131847514   13.79560327207368
C         7.32334654455820    3.82455619986398   13.66964155954310
H         7.48840314796611    4.61523306934714   14.40748753446337
H         6.59713316431011    3.09565634229564   14.05853356814835
C         5.15479320262976    5.03771128219288    9.09490956088944
H         5.68431576477824    4.32224773814906    8.47539289729773
H         4.18834738880095    5.26147744659827    8.65336282016923
H         5.03204411045621    4.64621601663088   10.09977201966578
C         5.20291981780191    7.38116600677584   10.49111970836091
H         5.74099190907688    8.27993217889301   10.76955151358086
H         5.12166794471666    6.70972673615763   11.34164472784923
H         4.21802188102592    7.64271117150882   10.11716344515111

