63
CSD_code = DAQHAE | q = 0 | S = 0 | Stoichiometry = C21H29B9MoO2S | MND = 10
Mo        2.04445781549462   13.99688662190251   12.78339848796742
C         1.93822668800019   12.36184530337474   11.12084427164414
B         2.15399257528267   13.93282348550227   10.51552503992223
H         1.29516871427855   14.55407800968890    9.98463018564220
B         3.58326923679481   14.63151014853872   11.22667685671160
H         3.88569239105810   15.77621034702924   11.17427505473771
B         4.20705026943239   13.37509821831518   12.31307928809189
B         3.12627822975751   11.99762800655459   12.27087958424268
H         2.96423322335597   11.18864378616000   13.11886600299848
B         2.61456738488394   12.50337226485848    9.55728172434416
H         1.98080723962952   12.23532045480517    8.60898269975844
C         3.64643944090496   13.85457826108363    9.66165051381976
B         4.94875845819750   13.54891838277910   10.72177533023325
H         6.00556443279655   14.01942954032446   10.50997761275418
B         4.69141438044094   11.92819145505347   11.37396129373465
H         5.57556219411710   11.22426272516285   11.71423486645346
B         3.22816882948429   11.28892139114234   10.64574331806349
H         2.96469126209914   10.15714457867165   10.47514847096957
B         4.34729872286117   12.26970559705638    9.67277278087244
H         4.95561339317130   11.91885269450237    8.73258470829537
S         5.30419605191422   13.88421715848043   13.83618930323898
C         2.51740736780911   15.31106612338887   14.08523657712641
O         2.79034976248533   16.08564213310926   14.90432776308826
C         1.59741328460514   13.12669935004885   14.47487657292674
O         1.82225874883535   12.54083800159679   15.49332891402953
C         0.43587559573549   15.65107816453479   12.94439743893026
H         0.31928865006553   16.16280098161630   13.89687231638076
H         0.31999300876956   16.31707438742112   12.09340241808085
C        -0.06580310552886   14.33699844198132   12.80795228028048
H        -0.78283295611357   14.05343122640294   12.03917196882663
C         0.06491767047594   13.51247992905951   14.04101398641693
H        -0.46585166628270   12.55807369351444   13.96271941464004
H        -0.27549090980321   14.06009323135630   14.93117426488609
C         0.58003783494926   11.75882729005612   11.18003773645453
C        -0.42707832153752   12.14004140783588   10.28609928053466
H        -0.22225060697972   12.88490041898661    9.53167192283065
C        -1.69288364104301   11.58816064211043   10.34323405771586
H        -2.44687619544443   11.91108156793942    9.63930919954968
C        -1.99717881385190   10.62573927766070   11.29058845361864
H        -2.98589578050811   10.19442331211163   11.33562131335996
C        -1.01159846121459   10.22052297545012   12.17348824187292
H        -1.22766612405952    9.46432667794167   12.91467667448269
C         0.25404085732714   10.77545857836600   12.11795611710376
H         0.99993912017173   10.43016982697603   12.81664127788211
C         7.03281715561913   13.47748432897220   13.37373181914971
H         7.37503674537784   14.24684768752478   12.69201760470134
H         7.06908674220539   12.50978332182321   12.88739567165318
H         7.64381415647546   13.48566659782275   14.26966803012229
C         5.04079857336320   12.49589519178483   14.97375892832560
H         4.01117559302688   12.53900529373129   15.32000468354322
H         5.71348755755337   12.60905913527128   15.81784191402651
H         5.22108971794523   11.55952370738030   14.45716203729742
C         3.83523644640277   14.74076874716556    8.47982921052988
C         2.97229924496879   14.69067028862136    7.38533700514961
H         2.14871856171721   13.99554755128110    7.37972280684042
C         3.14366975782250   15.51930847179635    6.29162776469401
H         2.45755242564032   15.45171607059277    5.45965452092444
C         4.18316125439397   16.43129400919722    6.25950153544164
H         4.31813402024768   17.07849979092178    5.40584434504944
C         5.04304462704488   16.50576379457240    7.34100338283834
H         5.85533971775673   17.21821315486610    7.33724467363450
C         4.86921687807559   15.67616882198715    8.43287723629921
H         5.54895457152010   15.76641796426867    9.26430124428232

