74
CSD_code = DAQJAI | q = 0 | S = 0 | Stoichiometry = C31H32N7PS2Zn | MND = 5
Zn        3.85357430312624    2.97526228610408    1.37174771018988
S         3.76899542450262    2.77333693021469    3.80298009860858
S         5.33471620774384    1.46271700014800    0.10700946686956
P         0.87393245857072   -2.39749197459275   -0.94436793835041
N         2.26151799888028    4.32347547629533    5.20970445712233
H         2.60919660856496    3.63216427809816    5.86254442270811
N         2.49760114118780    5.05866025139586    3.03685741632078
N         2.97000797753542    4.79912939741820    1.81626696690736
N         4.02702855812641    4.04839689423263   -0.40676472754226
N         4.55320569246193    3.51045493972907   -1.50260183632642
N         5.61730989122247    1.78260550586102   -2.50074394519219
N         2.16622970450151    1.64781100300581    0.86898538786782
C         1.40327641282998    5.27320051966557    5.74240484265536
C         0.73956744748441    6.22683799511234    4.97349087462650
H         0.89510718831316    6.23753697954821    3.90871721626096
C        -0.10553024771600    7.13676644102133    5.58058083523644
H        -0.61405689550905    7.87232299453728    4.97432281996509
C        -0.30874836152963    7.11254089087710    6.95008097650921
H        -0.97003148221714    7.82710080648185    7.41638243289470
C         0.34159094195996    6.15971844135486    7.71745157863309
H         0.18826051160675    6.12789819477279    8.78621020083732
C         1.18876413365665    5.24681472753491    7.12230388350264
H         1.69516342663554    4.50481392001286    7.72401772610633
C         2.75870267520147    4.17152835310118    3.95713820488758
C         2.96184548073431    5.67649450833285    0.86468902800547
C         3.51399325808563    5.23905512570356   -0.39677874175625
C         2.43321968044043    7.06651833632706    1.02984657312490
H         2.24425291781505    7.25145695153892    2.08409464417264
H         1.50144555660901    7.18479720601311    0.47730270333258
H         3.14665455940834    7.79756618615586    0.65579339837322
C         3.49965549622469    6.13957519307783   -1.59308408091123
H         2.49346988130137    6.50578177604412   -1.78795379333246
H         3.86029638034684    5.58539916056742   -2.45547809043508
H         4.15011399774756    6.99819215059619   -1.43098848737099
C         5.13416115068094    2.33109801754888   -1.36961474746146
C         6.33523438464169    0.53833382433369   -2.54353953607199
H         6.59341920422303    0.23303063893030   -1.53311354414039
H         7.24852038652473    0.66588677923890   -3.12897791217200
H         5.72390163284297   -0.24232837346615   -3.00705114677451
C         5.42658881317388    2.41566380997574   -3.78200080127095
H         4.84233924658898    3.32024687093751   -3.64514012353387
H         4.90163545417519    1.73425112046069   -4.45668116563677
H         6.39349495643985    2.67014028820281   -4.22379199925329
C         1.32508974131084   -0.81571278438541   -0.12884754239952
C         1.47274056873491    0.29279876107120   -0.96199342706586
H         1.28608446552937    0.20449170904195   -2.02271742871788
C         1.88992664534212    1.49125719254627   -0.42402519824498
H         2.02696843147412    2.36291940222426   -1.04917880206553
C         1.96894173015381    0.60929235434789    1.67507092324809
H         2.18555447300058    0.77578667093565    2.72187168129079
C         1.54363292196281   -0.62913837483412    1.23083815557413
H         1.42127570893284   -1.43893947082287    1.93402082738281
C         0.91543517893007   -3.53446502396606    0.49119998615781
C        -0.13103012008103   -3.42394379107900    1.40577808005929
H        -0.88377787670996   -2.65972386387074    1.25925168412069
C        -0.20435760224743   -4.27519153781737    2.49137249834709
H        -1.01185612919129   -4.17511639252656    3.20196099063128
C         0.75509842737337   -5.26074968242499    2.66238696433796
H         0.69866456140827   -5.92864840829881    3.50905061249665
C         1.78012144296898   -5.39324671445383    1.74139322368029
H         2.52293899058314   -6.16742659878994    1.86727090723019
C         1.86103265644611   -4.53867973363242    0.65537692669933
H         2.66165641410671   -4.65358888606353   -0.06109770594262
C         2.52327993238453   -2.70976663464244   -1.69203207693461
C         2.55934124400268   -3.35001316119124   -2.92570470206509
H         1.63068756697844   -3.62937773199151   -3.40457655595730
C         3.77120679740841   -3.62923029128793   -3.53277073524519
H         3.79221065189415   -4.12775356521201   -4.49096333774882
C         4.95416673691892   -3.26903454897620   -2.90959421577069
H         5.90170340057419   -3.48666394920418   -3.38053312607203
C         4.92311870571936   -2.62929998827503   -1.68010294654428
H         5.84309483955992   -2.34969362366337   -1.18919627704831
C         3.71489490735360   -2.34492286821750   -1.07170140016296
H         3.70523043204366   -1.84268028702009   -0.11495923142167

