40
CSD_code = DAQKAH | q = 0 | S = 0 | Stoichiometry = C7H18B10NO2RhS | MND = 4
Rh        0.05897069496996    7.67857912544133    0.29479597259855
S        -1.03565102084110    6.65891442535422   -1.50661572781089
O         1.56656533015650    8.44897818888141    2.77890433846389
O         2.00820997922895    5.57307342193588   -0.52970904415413
N        -1.75370601133667    8.93419770761805    0.74297463455457
C        -1.34542179722685    8.14584831625963   -2.48558434265774
C        -2.17573752897455    9.31517612640501   -1.76470988029209
C        -2.71747803342005    8.99816376857973   -0.38132724547183
H        -3.50037481026649    9.73199831965304   -0.13356155275321
H        -3.19523738106033    8.01277448477417   -0.43187982278932
C        -1.47513676162652   10.29338449063104    1.22179750451778
H        -2.40509034413606   10.79030988382758    1.52889999566630
H        -1.00607591929722   10.88709816799001    0.44093225789442
H        -0.80350940484352   10.25867003814279    2.07910542756876
C        -2.40535743489325    8.19340049104709    1.83710611474277
H        -3.37592911804720    8.64292151085446    2.08810736121016
H        -1.77713337518171    8.21479782462854    2.72825484191321
H        -2.56269695757481    7.15131996678463    1.54720412962688
C         0.96770827148992    8.23925280001398    1.82090304976232
C         1.29272571101559    6.39217756515070   -0.17998721268762
B        -0.50434057751286    9.60557822194993   -2.06752537331679
H         0.26188116723935    9.53494464093123   -1.15138570526987
B        -0.19274429220895    8.79381518514615   -3.58601762456902
H         0.82144620725112    8.21476765960388   -3.70832531316681
B        -1.68552959477131    8.06217997911638   -4.16976950212387
H        -1.64562078999255    7.00373110243250   -4.67315387254595
B        -2.96133108133119    8.39557220304879   -3.01862098692064
H        -3.74984259575940    7.60649858990404   -2.65318376320500
B        -1.69575411966374   10.86897867932116   -2.30741112120366
H        -1.76075824157675   11.76237599255216   -1.54371835054039
B        -0.41863736041974   10.57249131729810   -3.51955946994062
H         0.47346427901244   11.31984615276914   -3.68230362013353
B        -1.14521127550713    9.61783132780985   -4.83919546844615
H        -0.75490601703714    9.70364755871893   -5.94400846995739
B        -2.87359763467549    9.36470977302970   -4.46935900908923
H        -3.70337410849449    9.27854212275319   -5.29633050001469
B        -3.18937462957812   10.13153238659254   -2.88850131552050
H        -4.21689999579555   10.53232751026889   -2.47808443518950
B        -2.08988047799364   10.91149545418765   -4.04315824972857
H        -2.37533294931765   11.91809751857560   -4.57849864902407

