50
CSD_code = DAQNEQ | q = 0 | S = 0 | Stoichiometry = C25H17N3O3PdS | MND = 4
Pd        2.10065719374711    2.50602503936831    1.70516497010211
N         1.42201977989386    0.90257185286413    0.69129827720661
C         0.37200222819382    0.14880584761541    0.95415235851727
H        -0.31966945454491    0.50612208998428    1.70796167443864
C         0.14839890907017   -1.06341324778587    0.29539203492213
H        -0.71994839654937   -1.64930194981893    0.55159090623679
C         1.03937006043426   -1.50157455380450   -0.65784923166829
H         0.89158500253696   -2.44315520748619   -1.16719052457969
C         2.14511612627906   -0.69965127799310   -0.97747073573433
C         3.11773942861921   -1.00810137970886   -1.97367711079250
H         3.01713300974733   -1.94030478702651   -2.51068217292011
C         4.13437590651498   -0.15355990217066   -2.25238065399947
H         4.85643870498726   -0.39979302621328   -3.01836356146599
C         4.28381137546090    1.08824703575801   -1.56600146536915
C         5.29741610090183    2.01871433831397   -1.83834773497101
H         6.02556890322379    1.80535382998525   -2.60767772819711
C         5.35550698487462    3.19225849717030   -1.12518528515367
H         6.13684619705597    3.90775587841061   -1.34211755092924
C         4.42934340544192    3.48806548503912   -0.11480260587554
H         4.52841210427087    4.43058428873592    0.41191303357765
C         3.40493389324892    2.61157309905734    0.19164079422512
C         3.35737145662242    1.40746893390903   -0.55256574085014
C         2.29163087815850    0.50685767768490   -0.26437975266551
N         0.94791146446339    2.07330547131288    3.48692362087863
C         0.53232402707857    2.77317809983834    4.54880150370594
O        -0.06830344641825    3.83873135780107    4.50597006325306
C         0.89281822032449    2.09338970250056    5.84068142487420
C         0.51996426188409    2.49548232239584    7.11269522577950
H        -0.09664614735543    3.37226436796336    7.23820929102779
C         0.95530696531723    1.74405861421398    8.19407632187588
H         0.67469911640339    2.03563465709048    9.19558536146103
C         1.74792822626011    0.62020405424348    8.00728043580158
H         2.07612262011092    0.04900213878054    8.86288074585638
C         2.12692921530261    0.22145846046305    6.73038974896954
H         2.74534899216445   -0.64768324370247    6.57018996253183
C         1.68480047573741    0.97228957425422    5.66599547927073
S         1.95723569506652    0.85542658706342    3.89864254136766
O         1.53397595168552   -0.40811125167680    3.35819599626745
O         3.33140464002805    1.22658608202366    3.60312675971134
N         2.66827898825272    4.17239583826434    2.63259264165621
C         1.73655349103011    5.11146613212507    2.80865950546396
H         0.85461151394330    5.04893063242414    2.17560152005657
C         1.86993800295916    6.11417613844694    3.75417206990412
H         1.08641149901887    6.84378581735898    3.87600276462258
C         3.00514038757991    6.13975005558906    4.54829258621328
H         3.13183747746546    6.89882924298062    5.30556966946981
C         3.97593999644979    5.16879957246518    4.35009771080024
H         4.87689572627137    5.15501710787208    4.94325567911598
C         3.77224909524831    4.20282782247095    3.37955981204145
H         4.49856374819702    3.41625608278362    3.19612936538315

