46
CSD_code = DAQPAM | q = 0 | S = 0 | Stoichiometry = C21H15N3O3S3W | MND = 6
W         9.74763022639248    4.09594771928055    1.04175090237789
N         8.68070190936698    5.49144218240142    2.07378083407075
C         7.91677286776338    6.24139147236757    2.50058016107123
C         6.91436159210097    7.18338860725981    2.93490371836788
H         6.45156359943278    6.83198078939337    3.86205246637297
H         7.39327400738199    8.14889958874684    3.13633624546218
C         5.86503452208417    7.33386144875040    1.86351815611694
C         4.47852904129830    7.47025444772542    2.13141845024612
H         4.06193159069204    7.47994119435554    3.12284615621957
C         3.73774881694359    7.58109141220765    1.00196435782080
H         2.67619807312485    7.69132611065406    0.90897492341180
S         4.70942920315176    7.52464749244696   -0.41433436438070
C         6.13267495123539    7.34477166880522    0.52980063317893
H         7.08598184642099    7.24935797578252    0.04681880061893
N         8.12644893880346    4.09532605399765   -0.20152752352356
C         7.05163295479256    4.09541866659859   -0.61779624494339
C         5.67215714839285    4.09640872495488   -1.03185232082580
H         5.47000920582128    3.20938696302384   -1.64333460884218
H         5.47247401211363    4.98135641704389   -1.64702408464115
C         4.76539142768354    4.10021351525274    0.17111217684148
C         3.34916824913197    4.11374237057066    0.06794343745246
H         2.82503617927634    4.12244890557856   -0.87071045838549
C         2.73754251633330    4.11435749046421    1.27620052940161
H         1.68844895108931    4.12331242278151    1.49343605330883
S         3.86760709744397    4.09885859640468    2.57151337848826
C         5.18106333360450    4.09109408337376    1.46486341407254
H         6.18607615108071    4.08028242411729    1.83981837384707
C        10.68811714933150    2.71521953366225   -0.01131022546238
O        11.25499373813251    1.92546581964374   -0.62387794384674
C        11.22157955868032    4.09705016751977    2.35685080878844
O        12.09729248387551    4.09923358951635    3.09965890644968
N         8.69134981769541    2.68757373540538    2.06629011903894
C         7.93791776607533    1.92634390173646    2.49174297263208
C         6.94522907808083    0.97459508427932    2.92734875541278
H         6.50082793178190    1.30677122463830    3.87034715807149
H         7.42976207395039    0.00633281590810    3.09990943680857
C         5.87493948046920    0.84323594781316    1.87433919980933
C         4.49232310693636    0.71736629600963    2.16605300846708
H         4.09335287736231    0.70329281315888    3.16468310890577
C         3.73025810935530    0.62297205545369    1.04932893737678
H         2.66614035877242    0.52340770018393    0.97499485673811
S         4.67647844400402    0.68366697363889   -0.38369027340448
C         6.11825959116868    0.84166434635056    0.53595290568859
H         7.06350830343443    0.93279005667881    0.03679039851331
C        10.67623094426968    5.49234051849646   -0.00124053826399
O        11.23585077433861    6.29236867538715   -0.60722515773640

