28
CSD_code = DAQSIX | q = -1 | S = 0 | Stoichiometry = C10H6N4O7V(1-) | MND = 7
V         3.66373669034796    3.94281920083737   10.87734790624006
O         4.07757031848191    1.98715754862595   10.61637281621218
O         4.14923145209883    0.33911942228126    9.11938415948986
O         5.52759468895917    3.97636279039369    9.88379770982598
O         7.70214987884578    3.79100782787269   10.34906384369156
O         2.33219606597839    3.59375002542908   11.56160935588599
O         4.07809975181186    5.54877840671627   11.54215042070944
O         3.44496568695030    5.62894957159337   10.39076906276337
N         2.92064947277709    3.62919646633339    8.98378775748436
N         2.33373390025285    2.96459411767153    6.35809608285786
N         4.83984791760435    3.50776849600504   12.39498752211024
N         6.70528277864941    2.87864267692631   14.32831584869469
C         3.24536008770642    2.44464905094005    8.48856422160313
C         2.95282150584094    2.12053403117448    7.16249981985998
H         3.23407211468376    1.15462798517084    6.76599851194950
C         1.99924737864401    4.13872487087131    6.87661712660293
H         1.48223797786935    4.82176673352659    6.21565630009147
C         2.29419217488828    4.48537103627535    8.19009844030661
H         2.04017081244894    5.44811942598110    8.61607767257173
C         3.89775391268599    1.47968677738164    9.48084479871333
C         6.12830957437293    3.46735925561820   12.09844151516815
C         7.06156348256972    3.14727761327955   13.08443441497204
H         8.11478340142427    3.11313464403141   12.84093329976500
C         5.40800804606113    2.92550357796308   14.59846291186629
H         5.12428203293116    2.70216323523893   15.61857980212049
C         4.45989524349415    3.24197182600565   13.63333964163065
H         3.39387371810364    3.28384057046017   13.82736952329212
C         6.51006993351593    3.77732281539610   10.62899951352009

