27
CSD_code = DAQSAP | q = -1 | S = 0 | Stoichiometry = C10H6N4O6V(1-) | MND = 6
V        12.03579442358324   15.06791834824916   15.11454918457421
O        11.96158481274149   13.83741595085097   14.19478724417678
O        12.19276725198201   16.35798374981479   14.29207708807180
O        13.77269998353995   14.91647033812412   15.76877876234584
O        15.33931045105613   13.75083056378355   16.83239422740598
O        10.24508423986939   15.19048428534115   15.61033040073294
O         8.58951372694024   16.32586122878229   16.56616251780596
N        11.87800842002033   13.45106819485413   16.92661236802998
N        12.35472748454007   10.76046731582231   17.38867703935524
N        12.01720487845110   16.57158050331513   17.05456723275485
N        11.53127891506313   19.26033339192304   17.52282967107484
C        13.10411307473586   12.94702100442998   16.85374725500305
C        13.33954624799635   11.59476213647086   17.09729555021429
H        14.33987451167177   11.18735303649640   17.04919698521671
C        11.13227705204888   11.27121966356059   17.43363992342782
H        10.33370631965982   10.57769499018092   17.66292627786169
C        10.88701349230698   12.62067052179455   17.20820096153752
H         9.89150443284738   13.04440916120227   17.25056158714258
C        14.19084815798107   13.93895179431112   16.45688676522332
C        10.81719876732666   17.10128670131754   16.84593304797586
C        10.57613913639256   18.45208452527330   17.09247083148146
H         9.59629114042733   18.88015414584554   16.93249096126741
C        12.73051896218537   18.72527347586993   17.70348714360570
H        13.50631664627279   19.39760409530111   18.04613991703213
C        12.97947741899788   17.37706752769585   17.47461369315475
H        13.95592887558300   16.93443609640940   17.62671359017023
C         9.76817117577658   16.14169725298283   16.29762977335611

