56
CSD_code = DAQVEW | q = 0 | S = 0 | Stoichiometry = C28H21ClCrNO3P | MND = 9
Cr       -0.58991230372376    7.17617610621661    4.54061240557364
Cl        1.06560331172209    6.80665515356471    1.33643410205975
N        -0.13115519188550   10.63867397095756    2.80130579461670
H         0.03349895419822   11.24874458335647    3.59144313350692
C         0.94877673104409    8.49840472410512    3.47620711640878
C         1.07734884995837    7.17531092518796    3.02766499404680
C         1.31655559317916    6.11111837062852    3.91806139915162
H         1.50333740626402    5.12008890846898    3.52565180780821
C         1.38831278726931    6.36780826385892    5.28935177351463
H         1.64021483511960    5.56452149095503    5.97082909394170
C         1.24904431870610    7.67932191701780    5.77247327064286
H         1.38197543928062    7.88889053050162    6.82618647970304
C         0.99043345151771    8.71810442373816    4.87425091023606
H         0.95817241744172    9.74183102663608    5.23403354335997
C         0.91554815199590    9.68384784546052    2.54838937115847
H         0.85625147390884    9.35037485032174    1.50533335266594
C        -1.47591890276724   10.35358253365274    2.59228643858788
C        -2.42770263653528   11.22854025886682    3.11778536726202
H        -2.09987375257176   12.06970036211240    3.71295625802408
C        -3.77210345188029   11.02236700100352    2.89126932252431
H        -4.49376866446407   11.70597143470321    3.31320339220247
C        -4.19655566209448    9.94241807494110    2.13470549290400
H        -5.24900534160106    9.77647846835506    1.96533446050537
C        -3.25895213161318    9.07622757163253    1.60391872990893
H        -3.57658871138731    8.22913531052220    1.01526946751115
C        -1.90774100718759    9.27247871207264    1.82701620308555
H        -1.20064144384942    8.58407618426661    1.39264299061675
P         2.55971765291380   10.60904381102289    2.79989101634144
C         2.75891550841681   11.37811255833280    1.15367621119619
C         4.05246812453021   11.62214508120347    0.69579359378994
H         4.89751861387363   11.28935139670144    1.28457983431655
C         4.25607526095865   12.27066870617272   -0.50689666734554
H         5.26188724058502   12.44554194684554   -0.86022204218260
C         3.17144255506075   12.69912517931664   -1.25578886347151
H         3.33053938762507   13.20570597694759   -2.19616787461700
C         1.88484295721336   12.48530577998900   -0.79089300745293
H         1.03774311878119   12.82862795537939   -1.36660510800376
C         1.67428252520878   11.83673431806002    0.41329170237815
H         0.66759763137440   11.68914802419451    0.77593619675395
C         3.61123043803957    9.10974816988225    2.60462380306332
C         4.12572079923440    8.53726620151560    3.76366987427701
H         3.96568754892761    9.02881131145024    4.71466025608731
C         4.83392284311968    7.35087735893983    3.70563842570576
H         5.22322312243266    6.90931526975858    4.61175435491057
C         5.04486723935804    6.73307710163218    2.48431416135906
H         5.59680759559610    5.80600235178720    2.43529041511373
C         4.55194883680902    7.30825511683821    1.32443072763419
H         4.71893143734351    6.82911595969458    0.37073086426085
C         3.83385709305180    8.48878885857926    1.38085441846486
H         3.44575008678894    8.92826045803875    0.47280767713411
O        -2.65507100081017    6.05895857768110    2.71160028305399
O        -2.92301702542457    8.90790112434420    5.18442783514055
O        -2.20275032770698    5.51720765340664    6.41112429305359
C        -1.98582465386471    8.29211707003064    4.91263088230623
C        -1.54003845624450    6.14516005344032    5.70458600293379
C        -1.82253067324611    6.49827762571616    3.37674406227386

