43
CSD_code = DAQWUN | q = 0 | S = 0 | Stoichiometry = C15H21ClN4PtS | MND = 4
Pt        0.94714439967068    1.30947759756199    1.67342245822939
Cl        0.56129623240979    3.40697826149013    2.35452228042102
S         0.20172593393564    0.44171281162762    3.66586281215566
N         1.68981673639755    1.57231164024710   -0.31236966225881
C         2.19858681547452    0.38300173092240   -0.73756853935751
C         2.86585471126227    0.27835075218645   -1.96185739496122
H         3.27241909072557   -0.66962085953349   -2.27033694078843
C         2.99682305458922    1.39695348036487   -2.75762444014893
H         3.51617258791748    1.34216434252123   -3.70241791855540
C         2.43490302630190    2.58714356095290   -2.32909908756960
H         2.49793199924364    3.47540476480919   -2.93658414755762
C         1.77883770023041    2.64627428880852   -1.10069287746091
C         1.99629189135129   -0.75450076624709    0.11828795210342
N         1.36018856560667   -0.51985292607882    1.24076301874630
N         1.10977528061265   -1.52856977757969    2.07197714113975
C         0.54785750483817   -1.21169876552608    3.21917145979833
N         0.23353184435020   -2.20081337111112    4.06466906721040
C        -0.28297294412900   -1.94789654548809    5.38817493094135
H        -1.35700202119700   -2.17257207750461    5.40989090173072
H        -0.15938770558806   -0.88251603729357    5.59050787293894
C         0.43399753951520   -2.75660756996159    6.47448692259622
H         0.01582613226575   -3.76285555628751    6.54083896993859
H         0.23061259137043   -2.26255007639839    7.42575958692575
C         1.94630775494946   -2.85588856335810    6.25739688452645
H         2.43220616951282   -2.95799678590986    7.22975058269170
H         2.31421084807374   -1.93567188487818    5.80085843112235
C         2.34678845160498   -4.05854324054174    5.40117548813395
H         1.86331260724978   -4.95306566395331    5.80265020774959
H         3.42566412277779   -4.20721951146683    5.48315388145854
C         1.99497097026455   -3.91360838242201    3.92283865393251
H         2.22440508819198   -4.84865407068864    3.40862601488026
H         2.59977061221087   -3.12547419049612    3.47217404588905
C         0.52359356270419   -3.56657573400528    3.68416491928950
H         0.29654801767251   -3.67266065495552    2.62077910995386
H        -0.12853146407258   -4.22905426703946    4.25472494144628
C         2.46143874216918   -2.12811102978306   -0.25592221614097
H         2.16392511467400   -2.82005099123562    0.52691543017229
H         2.01729594733461   -2.44213487565193   -1.19928325574411
H         3.54566466344003   -2.15176486458659   -0.35766462528776
C         1.15257479780371    3.92159597453195   -0.66355008506760
H         0.13371355784958    3.74342611159077   -0.32312843759767
H         1.69161055295773    4.33207013487488    0.18967172784931
H         1.14959891546956    4.64816358752717   -1.47101606548270

