99
CSD_code = DAQWIB | q = 0 | S = 0 | Stoichiometry = C48H41AuN2OP4Se2 | MND = 3
Au       -1.53432718878920    1.45812431926096    6.38128054625015
O        -1.66508862809925    1.31547636738470   11.13890803710892
P        -1.42936505430454    1.23144968934927    9.69436852752478
N        -2.61846477665315    0.24091562811554    9.00801882115819
H        -3.17178508863421   -0.17593818754750    9.75655787848313
P        -3.36627530700499    0.45842037092792    7.51226008983594
C         0.16801559410583    0.45801702473654    9.32910025138059
C         1.30496596649283    1.19542863003489    9.63358300092651
H         1.19465081319625    2.20246919290966   10.01569943885640
C         2.55512764475674    0.63016407342197    9.46232454359018
H         3.44314424975201    1.20658872942475    9.68007402338072
C         2.66716142505880   -0.67845145956348    9.01923627205607
H         3.64453164653785   -1.11774145565901    8.88203419242413
C         1.53110359508350   -1.43010064491628    8.76957808312850
H         1.61982552579702   -2.45774947866318    8.44970497273590
C         0.27688728227713   -0.86393455621944    8.92681013803206
H        -0.61559193815821   -1.44486620003899    8.74160602648358
C        -1.57134902049601    2.84572010109753    8.87222995130039
C        -2.78855672173265    3.48121195013092    9.08958907615247
H        -3.54246996095707    2.97900252396727    9.68324031792678
C        -3.01750053560414    4.73836679992372    8.56575036178567
H        -3.97202723037146    5.22067169666655    8.71624793694889
C        -2.01328585900151    5.38085467577517    7.85701276094479
H        -2.18541505976541    6.36617870055862    7.45076180087303
C        -0.78650929426426    4.76632541826125    7.67340997626118
H        -0.00241011756337    5.27424184950360    7.13285613373913
C        -0.56329323953785    3.48816669951113    8.16207478516794
H         0.39442991892078    3.01019586753917    8.01296827258899
C        -3.77807530401793   -1.27212677936264    7.14626447301045
C        -2.69231694202785   -2.07069597791212    6.79479844994776
H        -1.70541554975664   -1.62637311191345    6.73360409599404
C        -2.87821362114053   -3.40777035481471    6.50545680198157
H        -2.03249053330950   -4.02281286610385    6.23664093804548
C        -4.15225277471681   -3.95220776403072    6.55166545294907
H        -4.30096111049147   -4.99838821770617    6.32777046988868
C        -5.23789586154195   -3.15339885172473    6.87019523227753
H        -6.23234417349948   -3.57562216158086    6.88997858402814
C        -5.05845266332933   -1.81226684397484    7.16016215843963
H        -5.91105086738537   -1.18954786559700    7.39126369777795
C        -4.95497688116687    1.23792974875241    7.94598348924618
C        -5.33551106751267    2.37864987721142    7.24849951648867
H        -4.70021901231371    2.75832698082841    6.45931208020300
C        -6.50153716609961    3.04139789189436    7.58832251353606
H        -6.79205716442222    3.92799385304993    7.04466573519402
C        -7.28583248309987    2.57217367146359    8.62853599427364
H        -8.19525163178324    3.08934754636941    8.89668865000265
C        -6.90081016362177    1.44396189926835    9.33754860879754
H        -7.50767541232453    1.08642268598254   10.15670398872378
C        -5.73713459140143    0.77766629506754    9.00373874789733
H        -5.43553886057095   -0.09735042740974    9.56564021381940
Se       -2.41789158552592    3.55260483870118    4.87209044176373
P        -1.83970238106997    2.06062870197827    3.42638220058997
N        -0.27212198471111    1.79243639367570    3.16399892075199
P         0.87090680160246    1.55826541979254    4.27104945462344
Se        0.54755371725846    0.09625647966232    5.82699347645003
C        -2.42497344631534    2.64576027261873    1.81591869869950
C        -1.52576405253398    3.17425463698542    0.90171775284640
H        -0.47259538139602    3.18411644224495    1.14100149413783
C        -1.98401687664367    3.67742274068761   -0.30212815192948
H        -1.28420776268191    4.08820493578719   -1.01548823443439
C        -3.33837428264068    3.65864254928650   -0.59008660563828
H        -3.69540319233707    4.05209339206882   -1.53059529542421
C        -4.23782895313093    3.14110092005504    0.32861505796775
H        -5.29478042794472    3.13263180406994    0.10538793368498
C        -3.78465475025086    2.63794784423466    1.53318088676185
H        -4.48036147970281    2.23924592871032    2.25842741872876
C        -2.73526087483736    0.49185253195120    3.66976307280988
C        -2.13987869341635   -0.68807483059403    3.24633973001842
H        -1.12424864709736   -0.66844587548379    2.87329991134545
C        -2.85359218718414   -1.87108751668505    3.30853754371750
H        -2.39243866946306   -2.79306997213549    2.98655265454232
C        -4.16079092946278   -1.87039266437271    3.76560083924444
H        -4.72371900069081   -2.79174918749077    3.79020178701012
C        -4.74709210019801   -0.69372840604222    4.20441387823917
H        -5.76450411053292   -0.69583892462301    4.56778435839124
C        -4.03054067421224    0.48748509338075    4.17269043315785
H        -4.46974889355727    1.41298265124704    4.52468443385267
C         1.42693907425394    3.12572008656995    5.00916112455619
C         1.08007062044174    4.32735293232477    4.40887732238354
H         0.41041186033210    4.32940985379000    3.55897244233931
C         1.58231429188289    5.51106164251266    4.91823443847503
H         1.30938919485809    6.45072131967080    4.46077936357645
C         2.42941513401104    5.48976876562366    6.01522943922603
H         2.82116475160345    6.41606256443500    6.41029021532520
C         2.77147428285592    4.28630498499857    6.61374197293706
H         3.42638598088644    4.27492166526587    7.47293730735126
C         2.27249050435943    3.09984323964090    6.11039912056715
H         2.52306543797549    2.15009123388663    6.56860375899098
C         2.31316784654679    1.03200903007029    3.31273380601865
C         3.31536842715914    0.27864342264521    3.90569102118778
H         3.19860453854755   -0.05000367029337    4.93138824663132
C         4.43644888861981   -0.06738054505036    3.17461549162246
H         5.21581917220282   -0.65928628042080    3.63168547846969
C         4.55758488350542    0.34378888170816    1.85698096575535
H         5.43435662927538    0.07350203693586    1.28686908963887
C         3.55548578719638    1.09662368277595    1.26618967759139
H         3.65019552566619    1.41097334721890    0.23685766984850
C         2.43263085660020    1.44584348539253    1.99277024572287
H         1.63773232535929    2.02306456315644    1.54453160026556

