99
CSD_code = DAQWEX | q = 1 | S = 0 | Stoichiometry = C48H42AuN2O2P4(1+) | MND = 2
Au       -1.56244962115454   10.54386591850007    5.79833491382243
O        -0.01385901000726   12.99675128882630    6.71608615940532
P        -0.52967985741346   12.52648169429770    8.00767871786768
N         0.03353973863354   10.97910806252212    8.49755726712001
H         0.98206173044442   11.02610215253742    8.86593219011223
C        -2.33135376829108   12.36531990009591    8.09582295990008
C        -3.03920921378879   13.45076010826326    7.59252840813376
H        -2.49160854096111   14.26020609188980    7.12792496979531
C        -4.41710071533543   13.48449492231056    7.69739069802279
H        -4.96859409406670   14.33264748163802    7.32171631361672
C        -5.08667745760680   12.42881805012296    8.29542838763163
H        -6.16186905503194   12.45632280148662    8.38362012305032
C        -4.38122389757651   11.34298716748357    8.78982462678834
H        -4.90608476932840   10.52269825791891    9.25577776241751
C        -3.00097969318194   11.31338442797747    8.70514497334901
H        -2.44643373053758   10.47683514384028    9.10930649502321
C        -0.04039947975704   13.53098054272526    9.42153355847129
C        -0.43325042176409   13.18907780584089   10.71076082602695
H        -1.03425096703650   12.30483532811509   10.86905204341593
C        -0.04893030319925   13.98944776113987   11.76936699184489
H        -0.34572801374097   13.73307876259752   12.77515392811948
C         0.71493535704832   15.12532398623521   11.54027778582437
H         1.01032846272557   15.74764129561995   12.37127598904131
C         1.09696158163520   15.46777974356820   10.25311489345458
H         1.68784188111134   16.35454186512243   10.08113176468795
C         0.71651265677440   14.67045900657100    9.18807281346656
H         0.99722904395254   14.91147696785727    8.17261241820089
P        -0.28717783279849    9.67763061757782    7.47277763350999
C         1.37420044825029    9.11927226101232    7.02016966154998
C         2.20422146217511   10.05595596520770    6.40630625857208
H         1.83753141771541   11.06053325835788    6.23174696517677
C         3.48577156908024    9.69780648061963    6.03665675705701
H         4.13534270997629   10.42436418729465    5.57226416093928
C         3.93629798047046    8.40599889214316    6.26614736180119
H         4.94012734093490    8.12825083776579    5.98280302984658
C         3.10259746603641    7.46978091790598    6.85543323487533
H         3.45531202387187    6.46418248527788    7.02765883299301
C         1.81616652966049    7.81848213030733    7.22865871065446
H         1.16102633829313    7.09174913725201    7.68753718722998
C        -0.92370118958209    8.38807284528777    8.56727487936923
C        -1.87450730594180    7.50890589906339    8.05853782934538
H        -2.21907674964927    7.62793824758526    7.04000539310067
C        -2.37071739809055    6.50030945164329    8.86563560952309
H        -3.10708208356635    5.81394795791375    8.47618015896947
C        -1.92736442563614    6.37694186539643   10.17293448507544
H        -2.31844905102111    5.59185293938091   10.80201643350908
C        -0.98565367512717    7.26005844518870   10.68060964433176
H        -0.64618436967977    7.16072585715956   11.70063039460720
C        -0.47801142324702    8.26675435718414    9.88076554029304
H         0.25640663069217    8.96075024056444   10.26712064027727
P        -2.84446467811347   11.40675591410869    4.12509190576592
N        -3.16507368281132   10.10537903461401    3.10018101863330
P        -2.60155370294605    8.55814730304875    3.59008577084409
O        -3.11730327014164    8.08777953733244    4.88168129723741
C        -0.79988622395205    8.71948501603534    3.50202775488025
C        -0.09189076072688    7.63413043843736    4.00531540412524
H        -0.63937564193544    6.82459604406358    4.46990954948564
C         1.28600448296950    7.60055917252016    3.90040932450282
H         1.83761852961653    6.75250330858143    4.27613562909748
C         1.95543768715739    8.65631579188445    3.30234965932864
H         3.03063762159669    8.62897090281316    3.21420272418086
C         1.24983499890645    9.74206731873612    2.80798427795930
H         1.77457638821589   10.56241046440676    2.34198996657305
C        -0.13040441614248    9.77154783777378    2.89280276633904
H        -0.68507557071944   10.60795412687176    2.48851268187382
C        -3.09086017247890    7.55365585271406    2.17626170887640
C        -2.69819000568249    7.89567797994941    0.88701487434902
H        -2.09729213128305    8.77998823477380    0.72869945568646
C        -3.08255618597443    7.09532470480733   -0.17158356248300
H        -2.78592124207307    7.35179200883772   -1.17739333329026
C        -3.84628959048409    5.95936238468564    0.05753121945298
H        -4.14177308675287    5.33709709792979   -0.77347451517817
C        -4.22809119468779    5.61676863068165    1.34472545186953
H        -4.81887203809233    4.72994288085485    1.51672894112780
C        -3.84761215031727    6.41407991801378    2.40976459052344
H        -4.12818579197703    6.17297890592126    3.42524812543257
H        -4.11347168355089   10.05833622232047    2.73151746197994
C        -4.50584572747527   11.96528045848047    4.57736316889672
C        -5.33572419358481   11.02871101837538    5.19144946007985
H        -4.96889061889395   10.02428690256076    5.36630066964969
C        -6.61717179061049   11.38687896208407    5.56129269444341
H        -7.26658570532591   10.66039043367367    6.02589114611679
C        -7.06764200357038   12.67870936653554    5.33191884213553
H        -8.07147200119563   12.95638876016817    5.61533665358354
C        -6.23392850197072   13.61500490052408    4.74278391154051
H        -6.58697352101703   14.62049453902897    4.56985768181643
C        -4.94766394863312   13.26613219312098    4.36909189392202
H        -4.29250538208391   13.99281264420257    3.91002015818812
C        -2.20775307668262   12.69634185278083    3.03068918540577
C        -1.25668648350579   13.57534370401219    3.53928927616447
H        -0.91195112320468   13.45619856676055    4.55776007418333
C        -0.76044418052087   14.58391156464818    2.73213713439059
H        -0.02392371651984   15.27017038598012    3.12148738989229
C        -1.20403241928680   14.70744294727379    1.42493243834393
H        -0.81295190385837   15.49251255226872    0.79581238671667
C        -2.14602146656364   13.82453157217455    0.91741434078203
H        -2.48568220512045   13.92398672306090   -0.10253250501229
C        -2.65366348818031   12.81785853785279    1.71728529081609
H        -3.38825728517399   12.12401256952537    1.33099977754904

