87
CSD_code = DAQXOI | q = 0 | S = 0 | Stoichiometry = C32H40N2O6P4S2Zn | MND = 4
Zn       -4.66354616283709   -1.26039690895571   14.08356555852360
S        -2.83198389857290    0.14316380263234   13.61516098978206
P        -1.97052121671643   -0.04619413866562   15.43261645033341
P        -3.55281600821071   -1.99097517983793   16.61121419611976
O        -4.53831851802875   -2.41701569807379   15.56909797385016
O        -4.14374431506841   -0.78971442260618   17.49829905419268
O        -3.40498894746205   -3.23817138903212   17.57248319078771
N        -2.08583950269408   -1.48672951030790   16.14322614909577
C        -2.53547757900584    1.29076915601990   16.53318758035013
C        -3.66402670239307    2.05135364838810   16.27336098050185
C        -4.09301550321859    2.97612613242593   17.20953422276093
C        -3.39505126973279    3.14047571898628   18.39427136060283
C        -2.26261520841407    2.38131523479142   18.64947475300264
C        -1.83293328410112    1.45323352310115   17.72076147682153
C        -0.20179639715191    0.22313593626565   15.19554227634368
C         0.24749077297054    1.49667700038135   14.87108702707328
C         1.59589765221652    1.71116783000257   14.65559991431616
C         2.48971167095980    0.65608945857589   14.75898938890282
C         2.03703068171757   -0.61542962517419   15.07211437161256
C         0.68816627473210   -0.83569849961045   15.28824872872152
C        -5.48852229984767   -0.87903003292005   17.98003409716709
C        -5.54563971829997   -0.25972800160563   19.36491187820087
C        -2.51384927848368   -3.16232372132115   18.68021403554962
C        -1.13599341128442   -3.68108763806115   18.30929199207781
H        -4.21121286162518    1.91049776779459   15.35172963174415
H        -4.97896071753479    3.56195852358392   17.01468950849557
H        -3.73499550440761    3.85988432334007   19.12538096559142
H        -1.72113563667777    2.51070807981519   19.57549954795377
H        -0.96046570706190    0.83939184808580   17.90382895394963
H        -0.46751456444553    2.30379394216440   14.78853016575621
H         1.95284129463540    2.69945955852428   14.40542488517069
H         3.54313864740177    0.82599132365267   14.59059067802339
H         2.73640702879651   -1.43545019879551   15.14534472758340
H         0.30572760854474   -1.81623675991755   15.52966758259883
H        -6.13357954009409   -0.33417071981084   17.28318772179771
H        -5.79757128194827   -1.92890073020072   17.99838097651524
H        -4.92734928048373   -0.82362218607359   20.05958809674461
H        -5.17752779383000    0.76245624092876   19.32171664367334
H        -6.57172872435014   -0.25696088784383   19.72138711918284
H        -2.96499117023361   -3.77824872870640   19.46503201359445
H        -2.44797960221294   -2.12517333892609   19.02677656914301
H        -1.21105339908912   -4.70131806238930   17.94290136023662
H        -0.72019353316809   -3.05654288575492   17.52420565093477
H        -0.48375312178898   -3.65697860141143   19.17866350857656
S        -6.49605565041969    0.14190439252208   14.55184438539341
P        -7.35621827047043   -0.04720534009837   12.73370439931599
N        -7.24064382468186   -1.48771088520802   12.02306516077070
P        -5.77344014148768   -1.99177039097584   11.55551423304817
O        -4.78788205771769   -2.41685929001316   12.59796415714388
O        -5.18287131486654   -0.79088090658503   10.66770063805626
C        -3.83787943802943   -0.87983372273384   10.18650510431524
C        -3.77971457914691   -0.25664986710527    8.80342129603562
H        -4.39829001531390   -0.81799188101746    8.10693774807438
H        -4.14692743731497    0.76573118350933    8.84942312251495
H        -2.75349758417353   -0.25378520938518    8.44731743402245
H        -3.19269187496292   -0.33741554891675   10.88513017386415
H        -3.52962631472700   -1.92989094522606   10.16533186342391
O        -5.92072466595271   -3.23957466022649   10.59495406427184
C        -6.81208509118624   -3.16488466639248    9.48732272110704
C        -8.18928348674963   -3.68512746093994    9.85860206542533
H        -8.11306052543710   -4.70531138068118   10.22488745338007
H        -8.60545815756496   -3.06108536145074   10.64388517681276
H        -8.84183414404905   -3.66160567203198    8.98944692469722
H        -6.36040823359808   -3.78044070298086    8.70252458075705
H        -6.87913909745499   -2.12786766532856    9.14059757150921
C        -6.79032410469259    1.28970809482288   11.63355401441951
C        -5.66243721328934    2.05085928518075   11.89453581103164
C        -5.23267663698425    2.97549524131063   10.95857592922096
C        -5.92922576368263    3.13913139296443    9.77291340188464
C        -7.06107918681731    2.37946660479986    9.51659496452806
C        -7.49153201870740    1.45155082408845   10.44510028576430
H        -8.36350420342451    0.83725960173181   10.26118451098195
H        -7.60143706201150    2.50829392688872    8.58983777271255
H        -5.58864313206668    3.85839029757415    9.04195286154077
H        -4.34722457317351    3.56176623674430   11.15433709583500
H        -5.11634931029229    1.91059731224501   12.81690109865732
C        -9.12503794598734    0.22270369850315   12.96941885222094
C        -9.57359655384000    1.49599043709844   13.29590115735181
C       -10.92210877025740    1.71132598629538   13.50984018218607
C       -11.81678295545804    0.65733526566883   13.40280812905341
C       -11.36485134500346   -0.61394507704071   13.08765087198510
C       -10.01586822461194   -0.83506265482811   12.87309136974614
H        -9.63402087934465   -1.81544088004839   12.63011845784843
H       -12.06491346787196   -1.43312018794288   13.01156395889482
H       -12.87029783197723    0.82788820783844   13.56999663966431
H       -11.27847427811867    2.69940920496772   13.76165347655656
H        -8.85790260754128    2.30220197880898   13.38127492944068

