87
CSD_code = DAQXUQ | q = 0 | S = 0 | Stoichiometry = C44H36ClIrN2OP2 | MND = 6
Ir        6.79390846908829    8.45563603855396   10.92293805753144
Cl        5.85492758117295    6.39698840727908   11.59311406846410
P         4.89165444511027    9.42840600918449   11.90762005174374
P         7.96951836195129   10.23305712518811   10.04706309450293
N         8.21496366690713    8.36483437933541   12.65639131731012
N         9.51487164147926    7.49791564776760   10.98193483058986
H        10.37562783319505    7.05582506575807   10.69617593126575
O         6.02117819578753    8.42641259614263    8.16283771264913
C         5.60437214301325    8.38711482728565    9.30126120610542
C         4.13907573307100    8.28355860187853    9.57356963117185
C         3.62788293261194    8.75186358709935   10.78838566446299
C         2.27220112480788    8.65581725131115   11.06004413927887
H         1.88089618215005    9.00803368977325   12.00432419333253
C         1.42587351376021    8.08938183225608   10.12054141943410
H         0.37045218152678    8.00280047277658   10.33483866072364
C         1.92671638451048    7.62767841438580    8.91277980871767
H         1.25943943343881    7.18249794623123    8.18927599803795
C         3.27781582267892    7.72961766365790    8.63338020430441
H         3.68612554804588    7.37316167248038    7.69920183233385
C         4.14596521136284    9.15234672376137   13.54880735909502
C         4.49402194725801    7.99957668016078   14.24617410299947
H         5.19464735614601    7.30470452834359   13.80483249348552
C         3.92391553146897    7.73665548905918   15.47907323120196
H         4.19641890081193    6.83924211671531   16.01461236442199
C         3.00498202861837    8.61849620270862   16.02308636071417
H         2.55951521152996    8.41327783479977   16.98567168983555
C         2.65253264398194    9.76521638159868   15.32925570725279
H         1.93067694046705   10.45155455346104   15.74872238323534
C         3.21872596077523   10.03588689825898   14.09694722339174
H         2.94109183770092   10.93369026470607   13.56135079085500
C         4.68696309212874   11.22932372710086   11.71086007868228
C         5.26550655669306   12.06168869942463   12.66660715375763
H         5.73446387821435   11.61989658337359   13.53755735673714
C         5.21590555484483   13.43430858715054   12.52208221890328
H         5.66248873735058   14.07347523176544   13.27030788584268
C         4.58836077478116   13.98992936612193   11.41841569217488
H         4.54191979698145   15.06303162446894   11.30721738307995
C         4.02198127890023   13.16842303166919   10.45891752514949
H         3.53426897941252   13.60091113049279    9.59789353966932
C         4.07985660052726   11.79304387724024   10.59525242157074
H         3.64504041459157   11.15274297737347    9.84070759730936
C         8.40432176899569    7.43759517298432   10.02762286215475
H         8.17845858519271    6.37523374006202    9.83937714361204
C         8.89781248376539    8.06790039433723    8.75676288272910
C         8.83174363867776    9.46005505183329    8.65041579814195
C         9.33638787304428   10.12014409156592    7.54046207007479
H         9.27034640897667   11.19760713900561    7.47182010740200
C         9.90335698406748    9.38284692004341    6.51419034602411
H        10.29142641899906    9.88622992494382    5.64070813921648
C         9.95218589069349    8.00097154975539    6.59772814716683
H        10.37647196525676    7.42957957285973    5.78475840553514
C         9.45866426188382    7.34537603409162    7.71441988156952
H         9.49682203913581    6.26639576376755    7.76888828062410
C         7.30401355578208   11.76504100469295    9.32074597826681
C         7.57472032336295   13.03200677228900    9.82399899437772
H         8.21255026284223   13.15024618935865   10.68799784975564
C         7.04067874853635   14.14977599270729    9.20701423471015
H         7.26307484315388   15.13226310693616    9.59761160116603
C         6.23254430716032   14.01340586796807    8.09183051441689
H         5.82330978586633   14.88974540754810    7.61071284968568
C         5.95203321175729   12.75093758567484    7.59269189442190
H         5.32193944836400   12.64067615338837    6.72230816804970
C         6.48035263515834   11.63057638831080    8.20385031598057
H         6.27425485325404   10.64419848134019    7.81441315088616
C         9.31823701457798   10.82964055012154   11.11618246598775
C        10.65856228338754   10.64676164560411   10.80010556452029
H        10.93056751904101   10.21214489025977    9.84807280239280
C        11.63950494609104   11.01546511229270   11.70427480274708
H        12.68116668915660   10.87279226923989   11.45449579417862
C        11.29136089215738   11.56013541631849   12.92850781276804
H        12.05988171560028   11.83764129715705   13.63455291508717
C         9.95576723794474   11.74557091244953   13.24887915323195
H         9.68252318022427   12.16745185673698   14.20509069662997
C         8.97432232408075   11.37751295881898   12.34940143732519
H         7.92758525840960   11.50233389417417   12.59257473000191
C         9.40084133981166    7.87648992823766   12.26495306589869
C        10.50169473967369    7.80778384180432   13.15866480682548
C        10.30251569004290    8.23077206824885   14.45043065725209
H        11.11844985773318    8.19268554721437   15.15841233699751
C         9.05356202436628    8.70584143982878   14.85214010218366
H         8.88067179526949    9.02959359203997   15.86524411163395
C         8.04981669781587    8.75617556030831   13.91554819908706
H         7.06365043532076    9.12377667362750   14.16835003805702
C        11.83107843523000    7.30046744626854   12.68892234514845
H        12.55780259380107    7.35340750838423   13.49577658084180
H        12.19856236721332    7.90017027269240   11.85520050070658
H        11.75965424009206    6.26205327469846   12.36255908311335

