82
CSD_code = DAQXOK | q = 0 | S = 0 | Stoichiometry = C40H35ClIrNO2P2 | MND = 6
C         3.36074102785987   15.21575507705666    5.98022525703349
C         3.77815343290887   16.65766864941613    5.95648065742727
C         4.14944662461466   17.29217295568282    4.76781772638899
C         4.61882403034639   18.60036490149896    4.80285150750809
H         4.97719292515100   19.06913751473241    3.89607366512076
C         4.65629482320038   19.29286242215915    6.00058708705736
H         5.01157888961349   20.31319192263982    6.01933783372994
C         4.25017151920970   18.67768991786150    7.17571197282038
H         4.27946136883200   19.22246158580947    8.10778170361406
C         3.83255164340586   17.36140950433854    7.15675395476131
H         3.54326770738428   16.85116017224565    8.06371587272970
C         5.62207391495904   16.66532433263508    2.45651692913995
C         6.76866265347447   16.80607779730708    3.23744551292019
H         6.69034500090830   16.77096042974337    4.31645745217732
C         8.00033178158064   17.00154719165700    2.64211075489330
H         8.88101958113768   17.11849841330377    3.25702570142003
C         8.10605064883181   17.04311618442325    1.26101301189268
H         9.06920734356719   17.19436722151817    0.79700467967556
C         6.97374567845528   16.88500043554561    0.47898902034707
H         7.05354058625512   16.91060749845327   -0.59786467413021
C         5.73855507934339   16.69079860183325    1.06994868913062
H         4.85917149463666   16.56220701536828    0.45547764635388
C         2.88385892826496   17.17918368294768    2.14921333490852
C         2.49571135858118   18.50632260877915    2.29272276050987
H         2.87386736437633   19.10430226661212    3.10939642177343
C         1.61102538922685   19.06828567862955    1.38857116111099
H         1.30566900974177   20.09788963559062    1.51021512089547
C         1.12182173176014   18.32138006060192    0.33009533851579
H         0.43468600569820   18.76832504414641   -0.37315415359986
C         1.51020009295680   17.00109149928394    0.17952989630937
H         1.12682502716829   16.41340416665794   -0.64090142438870
C         2.37620080841136   16.42660725172796    1.09133785175255
H         2.64632476107577   15.38165793747054    1.00562754986789
C         2.31326086446355   12.62181252896105    5.08212979892012
C         0.83838721638280   12.51038392799775    5.27456648175043
C         0.02554775601152   13.59513898590746    4.95142356559824
C        -1.35254810519367   13.51355815758400    5.09507013369904
H        -1.97441679384702   14.35873379441063    4.83240076533536
C        -1.91593659540736   12.34323922541424    5.57466552061770
H        -2.98768816813845   12.27150433527612    5.68960907960295
C        -1.11107602069916   11.26121344710205    5.90475557408909
H        -1.56180085944480   10.35181422917507    6.27425718922717
C         0.26140170662019   11.33913033627334    5.75693380650469
H         0.90125401884264   10.50452498832350    6.00257596848824
C        -0.17698846251629   15.53079181929230    2.94726762079169
C        -0.19611720823893   14.67457027892509    1.84883553075198
H         0.47387474723546   13.82660211417815    1.82629871396918
C        -1.04729456771386   14.92328625725368    0.78929369852588
H        -1.05797906288982   14.25343407079410   -0.05774301723604
C        -1.88203991807746   16.02888479697415    0.81364844348859
H        -2.54543404951480   16.22731598109586   -0.01558615333822
C        -1.86873872285695   16.87844823629659    1.90651753241347
H        -2.52410957989659   17.73724058324268    1.93266716057578
C        -1.02557069881902   16.63150683205695    2.97599060739047
H        -1.04153935932772   17.29194599340929    3.83046237806376
C         0.61635396404190   16.31332605835888    5.60024293602609
C         0.90544600713975   17.64329319332018    5.30257302874629
H         1.20954713113429   17.90462524887937    4.29829073812850
C         0.80784605280359   18.61560875408153    6.27909072369295
H         1.03092107016007   19.64509773724987    6.03873987635724
C         0.43692959987703   18.26607111003352    7.56760739668570
H         0.36732700390578   19.02400577135790    8.33379664134538
C         0.16461510998356   16.94304406188519    7.87346551589873
H        -0.11378615952166   16.66789998294755    8.88001224135028
C         0.25695032831923   15.96671126401418    6.89753519296179
H         0.06279823006963   14.93291982143411    7.14301609623493
C         5.95601648135797   13.54479924042418    5.51127338763384
H         6.82418445249719   12.87708201047412    5.55267289241977
H         5.38274353906304   13.43149117614676    6.42882495595330
H         6.31542195232557   14.57269257933776    5.44326153236749
C         5.90392613948541   13.21333818093130    3.13046886471329
H         6.36920685634463   14.18592868883746    2.96687335366657
H         5.25588231156865   12.98610240557515    2.28542018118858
H         6.69420185854209   12.45673625786879    3.18577970385430
Cl        2.75281547748667   13.04844063178873    2.08619768335844
Ir        3.08618132686186   14.28038452527365    4.22196989261215
N         5.11053564735935   13.23841299432474    4.35912674334794
H         4.75290826439143   12.28820836782044    4.50664120952726
O         3.22956522916404   14.64626405397176    7.04305200938212
O         3.04752088005002   11.70517352797101    5.38008594528069
P         4.02661430164228   16.28093883368193    3.25667598954166
P         0.91440057406096   15.04699302437603    4.32754904883183

