94
CSD_code = DARBAB | q = 0 | S = 0 | Stoichiometry = C49H37IrNO2P3S | MND = 6
Ir        4.31599816715552   16.26206039786357    2.85728381138792
S         6.11188534932577   15.06385130915477   -1.37512217801676
P         3.53942399079365   16.55435285872255    4.95816115630441
P         5.50533264401228   18.25664174640011    2.46211822348856
P         2.67530400198542   17.32448413850533    1.54080815208948
O         2.44101192227294   15.40121785639182    5.21422772372123
O         4.73263290238810   16.13339097935940    5.95825906368538
N         5.06682055058353   15.71187562925370    1.09125227709692
C         3.14214009985453   14.55755483134097    3.05569296800734
C         2.96299186354231   13.58313750023246    2.07917265065890
H         3.54803121535492   13.62626497937371    1.17245937175218
C         2.04783634233248   12.55338626273069    2.23704302527689
H         1.93471315297495   11.81800300248639    1.45419591865792
C         1.28315057155082   12.46633691551235    3.38532917672349
H         0.56988145955418   11.66587302014373    3.51235890892718
C         1.43422616246455   13.41709778869204    4.38045498101360
H         0.85388855832968   13.38014976000973    5.29021879367127
C         2.34885609733173   14.43940905007505    4.20276820423488
C         5.89306957445797   15.45418070799028    3.94529200851425
C         7.05960954905598   14.92310882229082    3.40455464006355
H         7.14467765854878   14.80845415387060    2.33414313701778
C         8.12307596495756   14.53533584775468    4.20551755568668
H         9.01342236158593   14.13025822054849    3.74772319072108
C         8.04895995596347   14.66627836479693    5.57966106417637
H         8.87490574484275   14.36578327963512    6.20668732854801
C         6.90368937543148   15.18996971504736    6.15495591379077
H         6.81084356088301   15.30681789494966    7.22432833361938
C         5.85480726233563   15.57416630851804    5.33916418945999
C         2.79328914039237   17.86832992289798    5.96366511480043
C         2.53334135331685   19.12138588554589    5.43432684195547
H         2.77653169186247   19.32957670027266    4.40231833837662
C         1.96588391451220   20.10134283988653    6.22868969350627
H         1.76308038241161   21.07749509178300    5.81347932056051
C         1.66077572220597   19.82721016415828    7.55114212179278
H         1.21786643131207   20.59207957872492    8.17216535123746
C         1.92113689516447   18.57276902954867    8.08129615153934
H         1.68185993082115   18.36298437078957    9.11370243196982
C         2.48708692164493   17.59101088522845    7.28962324896479
H         2.69878636650705   16.60774075730050    7.68286012214767
C         4.78163267232645   19.03868217245948    0.98054049275659
C         5.45243557951726   20.02305416220415    0.25990921967351
H         6.43831690097363   20.33710536768874    0.57647013234030
C         4.86663313624993   20.58214709955359   -0.86098543332121
H         5.39397936669443   21.33938273335725   -1.42209225090515
C         3.60768373532378   20.16655132646168   -1.27104414939451
H         3.15600783037035   20.60082808840046   -2.15066208183880
C         2.93222919973115   19.19124481205870   -0.56070426564814
H         1.95474013073621   18.85731436065718   -0.88288172473141
C         3.51436932756721   18.62048615853560    0.56781092593674
C         5.44296463770797   19.59003761056937    3.70392272736295
C         5.01230841741423   20.88406432530518    3.43589258791655
H         4.73938560466427   21.17152356330956    2.43023913575451
C         4.92312352168818   21.80922125506003    4.46166750255263
H         4.58624156413885   22.81302920527280    4.24634287337148
C         5.25824470751878   21.45416630439774    5.75702429819664
H         5.18271839676484   22.17952429818029    6.55326323363679
C         5.68033634900095   20.16339683486008    6.03200925703961
H         5.93133097420403   19.87743664500110    7.04254921656490
C         5.76224734294932   19.23407582013441    5.01344890084995
H         6.06707423478992   18.21900208633812    5.22881393042697
C         7.26814596051724   18.13556446504082    2.04254035180260
C         7.62335149758675   17.74565344510630    0.75287368936123
H         6.86465645976420   17.63794186336419   -0.00850953682297
C         8.94465681383545   17.48559267049211    0.44503243623777
H         9.20655463779932   17.17711275682751   -0.55597370201046
C         9.92199282679755   17.60403223863032    1.41956680354331
H        10.95345379238573   17.39246250785311    1.17979423610982
C         9.57344195700101   17.98968766734959    2.70313699511854
H        10.33252097784014   18.08145476144382    3.46609499759795
C         8.25235693699128   18.24834199035441    3.01930470862519
H         7.99020003125497   18.54255809867030    4.02512159533183
C         1.82352879602521   16.34829516115075    0.26744874628110
C         0.59119054295293   15.75229368066547    0.51517029362199
H         0.05896599332027   15.96183987360109    1.43143814037800
C         0.03827182591952   14.89353282291643   -0.41698160331751
H        -0.92067309659861   14.43728541042483   -0.21907519833448
C         0.71233912910504   14.61129218387401   -1.59330558131123
H         0.28065202638020   13.93335404720337   -2.31459478962876
C         1.94309456270258   15.19666981471631   -1.84088789852707
H         2.47951102376431   14.97484412926165   -2.75127795974105
C         2.50008749158915   16.05804001237409   -0.91563843627361
H         3.46630954159527   16.50059274892962   -1.10932359344332
C         1.32443398379521   18.23569141808936    2.35842597769493
C         1.04993062369236   19.58089225229420    2.14143613190757
H         1.61795580257133   20.14361068880475    1.41399464453279
C         0.05044219196463   20.20791224731921    2.86523341877968
H        -0.15697941164702   21.25405459473111    2.69185793879976
C        -0.67858724329692   19.50424611640285    3.80848409098241
H        -1.45509126432998   20.00000584506683    4.37163431552097
C        -0.40277420973671   18.16567377862553    4.03663840101674
H        -0.95976730641549   17.61514737083117    4.78005028372065
C         0.59957205406035   17.53768540867749    3.32333287842660
H         0.83417743592755   16.49980314550278    3.51674342950651
C         5.52164917450924   15.40269398581435    0.05270093892799

