81
CSD_code = DARBIJ | q = 0 | S = 0 | Stoichiometry = C38H36N2O4Ti | MND = 6
C         8.29593147659424    7.96904010234568   10.02233511119887
C         7.86367449941150    9.13322451156368   10.70337642084500
H         6.83553751483142    9.43495476611076   10.56335845156927
C         8.69488201637380    9.83277364347571   11.53453653654949
H         8.32043841875593   10.70029093890711   12.05932523582442
C        10.03138937027728    9.44824932093258   11.72701843422583
C        10.49097373098575    8.35069963998906   11.04460088325817
H        11.51898339316771    8.03736434112948   11.16983839683270
C         9.66617168554622    7.58841122822369   10.19332033764238
C        10.22261841686216    6.45644460681208    9.53906620750465
H        11.30366340316291    6.31429090187616    9.66623867756783
C        10.11766926702709    4.53632772071503    8.18428068967273
C        11.41754104883855    4.50862415689343    7.68306851077054
H        12.05854378451894    5.37008894888331    7.79757002117597
C        11.87413826853764    3.40411686473341    6.98609060380021
H        12.87518111594152    3.40342612412675    6.58298983706927
C        11.04712340057291    2.31095720919752    6.78631595350020
H        11.40483891916697    1.45840028406750    6.22972753263169
C         9.75301515733036    2.31571333803013    7.27591441648408
H         9.10118804859887    1.47761428322920    7.07694001970226
C         9.26871219179980    3.42191284864013    7.97114042162409
C         7.22652597387800    2.57210920515995    8.78554178154905
H         7.65280848942814    1.56069167526729    8.82837721101879
C         5.85575982728963    2.68547528283772    9.14647344524147
C         5.17659024964099    1.52499507928047    9.57302216417445
H         5.73974234986827    0.60318660091757    9.63779538818934
C         3.84615508039920    1.52668057159069    9.90897802710949
C         3.14182053964359    2.73773812603132    9.80746603806497
H         2.09189121582917    2.75494514467602   10.06464757756702
C         3.75793807349103    3.88694524433690    9.39322956169654
H         3.20937161560662    4.81544617410807    9.31647640403192
C         5.13637584223293    3.92386565240202    9.06023307300106
C        10.90450233194481   10.22269667919346   12.66667855486613
H        11.93360463371682    9.87660324263403   12.61673285295545
H        10.54907236047327   10.10173323750153   13.68968086472452
H        10.87957483279604   11.28486317498376   12.42777061880870
C         3.13999222477620    0.28791992385224   10.37106090170048
H         3.81129885853654   -0.56673854492955   10.36763753946103
H         2.29283210740945    0.06832382565960    9.72247172280969
H         2.75781604266520    0.42447843732281   11.38212263177173
C         7.72176304708548    5.56012826541033   11.69291014959441
C         6.73172173262999    6.40247587951328   12.24625061875829
C         6.98217423006498    7.05297738090275   13.44092439454901
H         6.22739673371951    7.71094028884824   13.84939534601529
C         8.17404561782723    6.87148398720126   14.12198572263853
H         8.35771161192457    7.39663029022102   15.04736377167315
C         9.11112029387414    5.98725671902456   13.62282482911101
H        10.02712430794177    5.80505150537392   14.16794067371956
C         8.89820448051633    5.31683703074223   12.42886470403245
C         5.41503364785490    6.55228277053071   11.53966870354389
H         5.56269990572128    6.82657287155729   10.48903551701144
H         4.80393127766612    7.30930309149748   12.02773846028779
H         4.87693535248564    5.60114078315313   11.55946550647779
C         9.90784856589603    4.31756967591849   11.93282773354015
H        10.06550903913382    3.54228472793697   12.68321271232938
H        10.86911085942288    4.79415632492013   11.73924134539134
H         9.55116696651019    3.84815734101854   11.01434597190141
C         8.25557258128659    5.62664380277324    6.00470341847429
C         7.94055161525515    4.51255458222441    5.19670718792534
C         8.75385314129078    4.19352818390895    4.12274933558520
H         8.50942121394726    3.32957975872070    3.51995550208314
C         9.85996399643068    4.96277509427489    3.80851850854618
H        10.49030483943475    4.69559756223323    2.97358410183603
C        10.13188580305624    6.09551248310957    4.55461296016969
H        10.97051496065026    6.72569747402026    4.29162071551942
C         9.34281601231016    6.44814194245587    5.63633485395347
C         6.71246187067883    3.69731952105289    5.49435505692420
H         6.07668124145850    3.64268658912176    4.61043227622273
H         6.14858216837934    4.15790658372677    6.30706589577427
H         6.97746551252908    2.67752197919600    5.77673004681854
C         9.62038878834016    7.71083083058386    6.40460111109258
H         9.61925570594049    8.56692744545009    5.72954615495573
H        10.59717716346908    7.67048133290534    6.88851949096862
H         8.85190827570701    7.86122370350584    7.16443636208978
N         9.54004654193752    5.60483878338461    8.84893722443073
N         7.96809441295927    3.56413054767865    8.42144567237004
O         7.47165475593908    7.32668617721325    9.26697310413646
O         5.66266556573983    5.03218647582189    8.67325745890686
O         7.53248378035741    4.99497871225985   10.51037605484320
O         7.54888502420942    5.89043238435492    7.08619397689191
Ti        7.44017958053351    5.53948460353869    8.80989831071775

