63
CSD_code = DARCII | q = 0 | S = 0 | Stoichiometry = C22H30CoN4O5P | MND = 6
Co        2.07947438275818    3.74562239560529    1.40530720395265
P         2.35779117661104    4.10949195861056    3.67498676810946
O         0.81221880219574    1.21202039670410    1.92153995128493
O         4.75998353265868    4.22330720719569    0.75257334247825
O         3.29688836519718    6.28161139618711    0.74119235836904
O        -0.60967805045080    3.26157790286234    2.08403800789918
O         1.48045880427185    3.17693553227719    4.66718585639800
N         1.95026174402233    1.89177579522474    1.63397287577857
N         3.87238122549381    3.33601343593440    1.05182804711140
N         2.17577496855012    5.59308389664543    1.07770402220237
N         0.26408254162337    4.13845154919775    1.72221097388859
C         3.18284049932359   -0.23916688378778    1.65781388934899
C         3.06127000675899    1.24065012784229    1.50260361248152
C         4.18055550381324    2.07519481693115    1.17468430724919
C         5.56613398195074    1.54876404032027    0.97760955681910
C         0.90131059133912    7.69312917131660    0.95589716743242
C         1.05463852031973    6.22770532374480    1.19027525144556
C        -0.04954582164189    5.39498071125988    1.57035592683135
C        -1.43433537076963    5.92249914694904    1.76864797893831
C         1.73082526879796    3.51886742759083   -0.54429365584395
C         1.74388817162652    1.79384804109749    4.85783369264270
C         3.96164877436599    4.20040212387056    4.57299256702561
C         3.96127059245194    4.05323816267276    5.95722039010225
C         5.14275575757595    4.14259716627150    6.66789791294174
C         6.33465069677445    4.38787915045746    6.00427335553438
C         6.33733471971523    4.54833394721512    4.62966704940293
C         5.15624209258576    4.45453791303020    3.91219082478626
C         1.65867612241985    5.69642432924870    4.22095918246574
C         0.37477344417114    5.77588882819036    4.74275844606829
C        -0.14396218677951    7.00594505086146    5.10747924895984
C         0.60919004461001    8.15678315387671    4.94143127135759
C         1.88602649305331    8.07916695500471    4.40735860419437
C         2.41034697505065    6.85254603559120    4.04434514303351
H         0.07738575291152    1.96933411210269    1.99714064880990
H         4.02698679012320    5.54587541076805    0.66760578769452
H         3.55723786737991   -0.68136246255744    0.73617067261706
H         2.20979988848516   -0.66489056397541    1.88808736404595
H         3.88265682375052   -0.47960425629471    2.45680670100185
H         6.21488127875764    2.37816743998036    0.70484165522624
H         5.58724669331464    0.80395593871867    0.18379461621826
H         5.93908528426719    1.08904958641754    1.89224899770663
H         0.17768334519337    7.86969579366255    0.16203376868758
H         1.85951696991723    8.11902901628034    0.67152572576147
H         0.54301883155442    8.18154059184570    1.86063444559559
H        -2.07340778370063    5.10367545930021    2.09156223584830
H        -1.82561239568383    6.33316510702562    0.83870300130188
H        -1.44281062409123    6.70694399753870    2.52388663193037
H         1.77038452010070    2.47201230124753   -0.84127013767854
H         2.47518775588198    4.05985676764312   -1.12649758322721
H         0.74882573286214    3.90770910042906   -0.80894149574148
H         1.37096570356472    1.54531077942096    5.85230945979837
H         2.81444439156088    1.57739374408368    4.81334504103465
H         1.21330577546862    1.19208785909717    4.11930593171570
H         3.02956013069362    3.87589157157026    6.47532235797848
H         5.13446516412199    4.02546862576211    7.74196062817925
H         7.25791310934429    4.45721792242451    6.56055402195648
H         7.26221572755071    4.74684952006519    4.10867884037088
H         5.17740583900472    4.58636800337485    2.84190965368409
H        -0.21065374267402    4.87667325076160    4.85544702143089
H        -1.14139180938489    7.06748058550560    5.51838253256871
H         0.19979983839417    9.11574854215302    5.22433701004119
H         2.47191713394036    8.97621247548442    4.27130535399807
H         3.40311363728883    6.78833757383648    3.62096798087376

