83
CSD_code = DARCAC | q = 0 | S = 0 | Stoichiometry = C38H36N2O6Ti | MND = 6
C         5.57385715884851   11.52062706669618    7.90439229569599
C         5.91577372442800   12.40502037636940    8.98668263331463
C         6.71330226521271   13.50181106921634    8.77636237311782
H         6.97877059716959   14.15844944081814    9.59024808902583
C         7.20308961832954   13.78898727979011    7.49293955828863
H         7.83018672458230   14.65603988050554    7.35529781134502
C         6.88607241651958   12.98531400831407    6.43618644237353
H         7.25845289672354   13.21170157011281    5.44755406868868
C         6.06679456915151   11.84630445852117    6.60695905852959
C         5.70716518935077   11.06444002856810    5.47818452609947
H         6.09731468343898   11.41393158676006    4.51334391861125
C         4.51847196357663    9.37134853069160    4.37529495631029
C         4.28638586570061   10.01184485803078    3.15793319775099
H         4.47405082808221   11.07171559234714    3.06426371843535
C         3.76161188416437    9.31369014034006    2.08463286711184
H         3.57371396673077    9.82602115018874    1.15346385310587
C         3.45120895124247    7.96978589889427    2.21256834450661
H         3.01772539071716    7.43372546558107    1.38207035667165
C         3.67632528056689    7.31316419961933    3.40982903800831
H         3.39024084832335    6.27636325821146    3.50985247716268
C         4.21719959371841    7.99342427214618    4.50064193113938
C         4.75078785488811    6.17029978964171    5.86331531620139
H         4.82003934386741    5.54108950808238    4.96699693660521
C         5.02997638071807    5.51822549055335    7.09069648883202
C         5.46872503398044    4.17478312578183    7.08262445934496
H         5.55822810058850    3.66506055490601    6.13416824429458
C         5.79323205641674    3.53546274463059    8.24292285179171
H         6.14155897256880    2.51458031992096    8.22894017893781
C         5.68132720703569    4.19853876013259    9.47405446080064
H         5.95246030702724    3.66803674828022   10.37314314960427
C         5.23600862379951    5.49507039130487    9.52927344238059
C         4.90687108721756    6.21206020397243    8.32823233226163
C         5.65603698948035   12.80491966971450   11.31582664649350
H         6.72883156403084   12.84179348093325   11.53424521269774
H         5.13719662323430   12.32068152696362   12.14147242189734
H         5.27519716090329   13.82486786225014   11.19766682871871
C         5.50746123580689    5.68693707030675   11.87840355971154
H         4.91753857456162    4.80559551357990   12.15334608225847
H         5.35628887096418    6.46592171925565   12.62399184142756
H         6.56751913252284    5.41635471642043   11.84167643264803
C         7.30617010611631    7.82958549990012    7.76806580802297
C         8.01349603941914    6.92335104272805    6.95365721165071
C         8.86206394026395    5.99552104661963    7.53633108380223
H         9.38233804054973    5.29214358864245    6.90089857735167
C         9.05412165351660    5.96319739879551    8.90425794375666
H         9.71299505787877    5.22984190518609    9.34516448502922
C         8.41542053582036    6.89923235724933    9.70116056191513
H         8.59486702073563    6.90610221550210   10.76832914579082
C         7.55510235966971    7.83620164695916    9.15917930845348
C         7.85574471752499    6.97265245509777    5.45893812851825
H         7.41005347375518    6.05050402038153    5.08476903117584
H         8.82870641362973    7.09193331713502    4.98172343528466
H         7.22087284217238    7.81446274936002    5.17895694819012
C         6.87872555333428    8.86747788157880   10.01249634626915
H         7.15116482982479    8.73928188897081   11.05833880710409
H         5.79102381494020    8.79006399180303    9.91093442955173
H         7.17437393748950    9.86809574216351    9.68902499184734
C         1.91005175423775    9.85161791552243    7.58194893022169
C         1.02935461215590   10.40549483929505    6.62969340723026
C        -0.02888903055983   11.19543574011750    7.04517591012540
H        -0.69450952283918   11.61660610647759    6.30398599274644
C        -0.24500534251633   11.44481911243809    8.38844334862346
H        -1.07551086536372   12.06012007499892    8.70173593111017
C         0.60742372347071   10.89032620506479    9.32746245954252
H         0.43622243704966   11.07521708454978   10.37937879154470
C         1.67785855908581   10.09525027391474    8.95289722765828
C         1.27126810587626   10.13690679077571    5.17201920355721
H         2.05678275593954   10.79318662742972    4.79184944825150
H         0.36775042179332   10.30915723963768    4.59080679486948
H         1.60094607500323    9.10705861367424    5.02985755193152
C         2.59204846182354    9.50266577742785    9.98499329563067
H         2.09526910486251    9.45882957863048   10.95321858623832
H         3.49011890321186   10.11935611744028   10.08009365719092
H         2.90037136448734    8.49671938638486    9.68912694142709
N         4.95690485977584   10.01182430493892    5.52261153326212
N         4.46978318913528    7.42768616408079    5.74094401690353
O         4.83607604837207   10.50377590735416    8.14875135645230
O         4.49770021555817    7.42485834372535    8.42035128088053
O         5.38634174337315   12.01882383483087   10.18348187405815
O         5.07852896374618    6.23747422724166   10.65974911933918
O         6.43286983050966    8.67405995757105    7.24351536002926
O         2.91883769414108    9.09560521439298    7.18531160789477
Ti        4.65466606485510    8.87588648565180    7.27777172737716

