75
CSD_code = DARCEG | q = 0 | S = 0 | Stoichiometry = C36H30Br2N2O4Ti | MND = 6
Br        0.05825857419753    8.91014329373470    6.44950653486050
Br       -3.93221725380949    6.85768508575471   10.22649859033206
C        -1.70481209499595    5.62632871701501   11.43229036273535
C        -3.08585136966650    5.44082777921946   11.15449197309860
C        -3.78313253418705    4.31907165634638   11.51697071082110
H        -4.82889366948014    4.23007108004738   11.26480374320185
C        -3.13099940258979    3.29730539314819   12.21283311929039
H        -3.67841251328460    2.41169017060941   12.49281349195938
C        -1.80747923321805    3.43703647450192   12.54236836626613
H        -1.30358707379056    2.65682273476972   13.09503059373607
C        -1.07204408577216    4.58205672200790   12.18057616369996
C         0.27868582459840    4.71402873969054   12.60468025304479
H         0.66655697644383    3.89858708819305   13.22887194560964
C         2.30613645095829    5.85126773910397   12.85781759315836
C         2.64803752928044    5.44649230338266   14.14737573597696
H         1.90054132766985    4.99189001148425   14.78148873702398
C         3.92040648381255    5.67872228511488   14.63901409359933
H         4.16918465790821    5.37518724727432   15.64413362432658
C         4.86432602938612    6.32021288494572   13.85329991920962
H         5.84926850582225    6.51885601349014   14.24689562815998
C         4.54505962203335    6.72805827192289   12.57022694221690
H         5.27656863862730    7.26618597996926   11.98524644989062
C         3.27079122051346    6.49817220627096   12.05147771142511
C         3.67455648581873    6.99090048034136    9.80474469814622
H         4.72924922373940    6.72619131044369    9.95057010544965
C         3.32600657603363    7.40152074879949    8.49134835983892
C         4.29946142167015    7.35018491069631    7.47466567509201
H         5.28899560986938    6.99854303546474    7.73049782166439
C         4.01784120380971    7.71982362405267    6.18644679420530
H         4.77076827091339    7.66091537543348    5.41729253005948
C         2.73961674558444    8.18571478261834    5.86714214253264
H         2.50345717036637    8.49083409016941    4.85917081011428
C         1.78391134537683    8.25832509004626    6.84334483920035
C         2.00017415710332    7.85059345070501    8.18717293266776
C         0.95931114644955    5.11292635183601    8.43513636807807
C         2.12561715458866    4.41850589425145    8.06287751203864
C         2.37507646793665    4.17510695712972    6.72084774454770
H         3.28454452960535    3.65958401206231    6.44491686508185
C         1.48403284481115    4.57749278410848    5.74418306836957
H         1.70009973868378    4.39660876875828    4.70210921637072
C         0.29602150596251    5.18603552603052    6.11489501743072
H        -0.42389302966430    5.46766271554708    5.35932810427585
C         0.00954563854156    5.44362530378422    7.44364927827696
C         3.08275796471416    3.92540156581272    9.11315699545844
H         4.06938130349469    4.37173858478479    8.98468083208437
H         3.19432548656960    2.84344190593684    9.03669286532823
H         2.70702741206568    4.16764038459231   10.10848764040114
C        -1.29744991423858    6.05037946035825    7.86089427326117
H        -1.85314915053771    6.41118429490457    6.99840279510413
H        -1.13469745346369    6.88301244327242    8.55570577954704
H        -1.89978641683939    5.29356266198077    8.37066786217716
C         0.47718919345114    9.62416393365161   12.02960720240133
C        -0.48894391275847   10.42106040716885   11.38004818289482
C        -0.76176401794430   11.68636180307032   11.87136037106215
H        -1.50292563277809   12.29302235018423   11.37064250041090
C        -0.10636292180528   12.18123312039783   12.98576126083995
H        -0.33186918149766   13.17059159417934   13.35447503653319
C         0.83734877288526   11.39850765034241   13.62687347224775
H         1.35011996768868   11.77776655272372   14.49996394162238
C         1.13819627180306   10.12772787466145   13.16746582895809
C        -1.19079245098611    9.88065234253007   10.17223978078387
H        -2.02751198852385   10.51560472345710    9.89145020880959
H        -1.55843695055532    8.87175417723703   10.37369394303919
H        -0.49888630623712    9.82413116686955    9.32895706399867
C         2.15852422609475    9.26727860540218   13.85469954054965
H         3.01082393305601    9.09029427996865   13.19593281973164
H         1.72695610449422    8.29625573591320   14.10434225271296
H         2.51464495148706    9.74151799109536   14.76619723105065
N         1.03716585350260    5.71738079443589   12.31634166083376
N         2.84621398232966    6.88839813603138   10.79027947899775
O        -1.11424665647438    6.69285009111182   11.04512592299601
O         1.05291338789407    7.93081027347891    9.04321009528433
O         0.74607819602387    5.46092940342053    9.69877184708503
O         0.75968858724140    8.41329437918133   11.57883712532723
Ti        0.71558054218431    6.96775622154945   10.63848202138642

