57
CSD_code = DARCIK | q = 0 | S = 0 | Stoichiometry = C28H22N2O4Ti | MND = 6
C        -0.53196876430823    2.40447198996953    6.61881436101132
C         0.52452630271673    1.54495358188589    7.00074268855781
H         1.24065139206945    1.27093945949558    6.23896140180307
C         0.61852275224908    1.04405392356951    8.27249129315653
H         1.42337502173843    0.36625227998680    8.52121979807780
C        -0.30677700665554    1.38923570495728    9.27118755011881
C        -1.32089955981560    2.25566703095447    8.94307357674329
H        -2.04543525870760    2.54534484989713    9.69255227741073
C        -1.46907315042384    2.77164351767553    7.64245469121124
C        -2.46113369278853    3.75161247186973    7.35939295100638
H        -2.93312453287804    4.25961649334788    8.20974958033106
C        -3.45667135514416    5.21118917093590    5.76029169811696
C        -4.42458685203051    5.87830361774557    6.50373655857113
H        -4.69926679143355    5.52155368591893    7.48542167879434
C        -5.06725284618681    6.97988490468804    5.96197172961242
H        -5.82806807676853    7.48832081879008    6.53448890034580
C        -4.75129111781507    7.42297520771349    4.68738266442285
H        -5.26662951586528    8.27606384575848    4.27264110194066
C        -3.79404513756183    6.76807461912052    3.92921194233941
H        -3.59102976011654    7.09330548257858    2.91936868097291
C        -3.13811742673139    5.65711718826884    4.45201982584094
C        -1.45784160602135    5.30230325466154    2.83160306906248
H        -1.43363131479810    6.37355157208952    2.59241127814451
C        -0.61961077727794    4.45945548408876    2.05045219466820
C         0.26775105878715    5.04076240206549    1.12230012696778
H         0.30187126746377    6.12039667910309    1.05907227478462
C         1.08247500558357    4.28795059376228    0.31354999598391
C         1.00826588185241    2.88898645821604    0.41840757649630
H         1.64331214896476    2.28441252999938   -0.21387244352121
C         0.15014764547000    2.28261317615178    1.29591505308144
H         0.09250520046242    1.20565027456920    1.36787635008190
C        -0.69222610492044    3.03189923657249    2.15356927115844
C        -0.16555849539784    0.81684517133620   10.64935450462476
H         0.81703603451348    1.04732131811566   11.05902770189326
H        -0.26753297416422   -0.26732379509180   10.62053958901649
H        -0.92403428756799    1.21754785839203   11.31641919762344
C         2.02973715606519    4.91378365059338   -0.66475455031180
H         1.81551918875142    4.56781416462340   -1.67508062653928
H         3.05636874646712    4.63579432601726   -0.42937066893564
H         1.95089414118010    5.99741133105112   -0.64450311388738
C        -3.97695567034466    1.12384251974537    5.40468938174750
C        -4.60856857594796    0.11088548229302    6.11115394625448
H        -4.02043926065878   -0.60025889244622    6.67347742756838
C        -5.99676256482443    0.03596390338784    6.08251877798567
H        -6.49513857505129   -0.74916486051566    6.63215227139399
C        -6.74463673497171    0.95095845154384    5.36238842513017
H        -7.82217846375324    0.87411735313366    5.35417143095949
C        -6.13050212645498    1.97216686485381    4.64638301818309
H        -6.71177755128805    2.68880212061579    4.08385270530839
C        -4.74555842673533    2.06474051270657    4.66184369480672
N        -2.71175435985323    4.10896293358639    6.14344822857597
N        -2.21584993727092    4.86769615352295    3.78113639002032
O        -0.59521668472417    2.87381770756769    5.41498445462455
O        -1.50387831414999    2.41905576514023    2.94497024201916
O        -2.67143072191459    1.34820332154828    5.33047863138862
O        -3.99834751826371    2.96570390754126    4.03881860285444
Ti       -2.23805705274686    2.91165122432250    4.52534064041042

