135
CSD_code = DARMAM | q = 0 | S = 0 | Stoichiometry = C55H73MoN3O3 | MND = 6
Mo       -6.34186635988411    1.45366352174836  -19.12062157263461
O        -7.69063700230485    1.57596667390773  -18.19189821152680
O        -6.71101952014325    2.72336282636346  -20.49429702840488
O        -4.88791534517276    0.79823594637836  -20.18065682913797
N        -5.34514989557148    3.03935320878465  -18.43218739174981
N        -5.32675317235671    0.41332422252501  -17.87072234649158
N        -7.48976153753373    0.20080436710822  -20.56103451088334
C        -5.75814302684270    4.22517150709079  -19.03142712165221
C        -6.56231599034834    4.01154201760300  -20.17223331719200
C        -7.09347300663738    5.09557028000191  -20.87282571127428
C        -6.77072315358109    6.37572811894045  -20.42366394518278
H        -7.17118654584768    7.21591277221066  -20.96036716258140
C        -5.96173612985278    6.60752015339783  -19.31966253628872
C        -5.46377061813439    5.51321339622733  -18.61671214633151
H        -4.85799823704702    5.64515549786804  -17.73242232622142
C        -8.00695891117000    4.83703254313926  -22.06422169584438
C        -5.60393853233345    8.00786343173930  -18.83846553554408
C        -3.98571782659147    2.43565596455844  -16.47893739153553
C        -4.13770490400545    3.05514633880524  -17.73347526499393
C        -3.03880044141310    3.71443125915524  -18.29618521077706
H        -3.19234523627556    4.15486136546432  -19.26939093290602
C        -1.81007130160318    3.79665153995191  -17.66662559724428
C        -1.69276006277066    3.21667683912594  -16.40515214906831
H        -0.76178060074588    3.26575884887266  -15.86160535489488
C        -2.75926684859157    2.55501630058562  -15.83398094537392
H        -2.64100432108314    2.09638901462108  -14.86221562632593
C        -0.59708417285682    4.44218445240632  -18.31794804574742
C        -5.03734233060102    1.63164332268760  -15.82762507199185
C        -5.64674978226792    0.57440406092073  -16.51435018752007
C        -6.58580594998479   -0.23462405802746  -15.89459599444798
H        -7.01202118090750   -1.03153593231568  -16.48622765415752
C        -6.96740948481008   -0.01338547233752  -14.57753305467314
C        -6.35494927581404    1.03578379397630  -13.89684107122837
H        -6.62104631268480    1.24391456846858  -12.87162742339822
C        -5.40740144173556    1.83748020596847  -14.50515300542976
H        -4.96084552787001    2.65315025101542  -13.95465812156312
C        -8.02656979893476   -0.84974935801708  -13.87677359634409
C        -4.04455286680324    0.06119732957486  -18.20408093690223
C        -3.82705670936364    0.29366250744356  -19.58186911599219
C        -2.57611844936143    0.01214952878660  -20.14894589324729
C        -1.59702368412571   -0.48488105883233  -19.29967041070150
H        -0.62830676062934   -0.69074834532754  -19.71681368306727
C        -1.79842420075230   -0.72766182842906  -17.93976695501881
C        -3.04148357056081   -0.45256441577492  -17.39063010018617
H        -3.24933386869974   -0.61334096370065  -16.34344445500812
C        -2.34138920161989    0.28502876117897  -21.62711257757050
C        -0.70058840434214   -1.28129150927187  -17.04076630299051
C        -7.28260859020405    0.32556034662856  -21.87081180422065
H        -6.32657588195598    0.74252288746815  -22.16040654543000
C        -8.22107613920327   -0.02882722394889  -22.82958630069360
C        -9.43046994969250   -0.55341748674701  -22.38459406172086
H       -10.19195533163358   -0.83505168151241  -23.09821697422597
C        -9.65733809894642   -0.70555226605624  -21.02317927195790
C        -8.64878175618006   -0.30772727801428  -20.15157403317852
H        -8.77955722452575   -0.37784821980278  -19.07838457055513
C        -7.93591188535836    0.14074473991193  -24.28720722054345
H        -7.10484317243236    0.82288626905618  -24.44124112014747
H        -8.81192396778529    0.52447378984397  -24.80520911767464
H        -7.67919504332047   -0.82120533742234  -24.73099465350536
C       -10.93541006226584   -1.26769736042233  -20.48826957437261
H       -11.65974715668479   -1.41446545278848  -21.28476486411024
H       -11.35762927625531   -0.59619878254792  -19.74390706009953
H       -10.75097492767461   -2.22569425374155  -20.00417302233722
C        -8.55674153298674    6.12049500453041  -22.69210107267403
H        -7.75376778943923    6.74238487606110  -23.08081846166492
H        -9.13258194813288    6.69328158888265  -21.96934665068120
H        -9.21481265100596    5.86311641811935  -23.52044174320225
C        -7.21715544642116    4.07303623688887  -23.13537015319683
H        -6.39133329283741    4.68205013931870  -23.49828447478199
H        -7.86089773702499    3.81993226231339  -23.97657782025644
H        -6.81432529248732    3.15727026294105  -22.71203049744144
C        -9.19458367878887    3.98668279442422  -21.58846467364308
H        -8.84558024894671    3.07402844545102  -21.10570908879598
H        -9.83196593748384    3.71700746177578  -22.42979201719045
H        -9.78703006181338    4.54600356605695  -20.86731936237224
C        -6.15355235235455    8.20500540403018  -17.41907971545978
H        -5.91684280350797    9.20399038813855  -17.05703486275550
H        -5.72939599479617    7.48059737614079  -16.72993840170677
H        -7.23428590141219    8.08199062823278  -17.41717814787027
C        -6.18081368681047    9.11150326824805  -19.72957145540393
H        -5.87841585356986   10.08381305468980  -19.34449507186822
H        -7.26741922234236    9.07809944253172  -19.73898928058033
H        -5.81200831292035    9.02323965482777  -20.74873121752691
C        -4.07578576669973    8.15948265696629  -18.82730468048081
H        -3.79766463649439    9.15903392738585  -18.49793084810848
H        -3.67744192942155    8.00228200785678  -19.82777491551043
H        -3.61417170334312    7.43934137985472  -18.15752137310625
C         0.01122196943822    5.48948690742715  -17.37551832382395
H         0.87034326128189    5.96243363939643  -17.84702747946930
H         0.34207834430906    5.04521313616665  -16.44142185069827
H        -0.72309868819147    6.25888560542675  -17.14719223487104
C         0.42663622567258    3.33222998487399  -18.59938750567626
H         1.29035895885504    3.73540986387787  -19.12469472668599
H        -0.02573333702879    2.55449060343049  -19.21224237681330
H         0.76995779653246    2.87580584229543  -17.67448547987914
C        -0.93554885744483    5.14143422293364  -19.63711958863999
H        -0.04148641707803    5.61732132479859  -20.03624642725884
H        -1.69060712969938    5.90948555131797  -19.48745130448257
H        -1.29606091240161    4.43310981430967  -20.37865992987176
C        -8.60211597713565   -1.94444807147396  -14.77910053947337
H        -7.82859862410431   -2.64260395509464  -15.09098183058644
H        -9.06987209737217   -1.51094912728539  -15.65962508212472
H        -9.36004386204461   -2.50363326289286  -14.23337454480982
C        -9.17787123381523    0.07400921946628  -13.45514514086701
H        -9.97750814819766   -0.50509520971499  -12.99721018032365
H        -9.57513848138710    0.59173199428365  -14.32516623549073
H        -8.84441475933268    0.81990180714006  -12.73944426090320
C        -7.41208685806737   -1.51874643101925  -12.63944869976694
H        -6.58671735733800   -2.16463676454200  -12.93179235982570
H        -8.15971148367450   -2.12293080093738  -12.12944250283892
H        -7.03451542979822   -0.78069770667523  -11.93753696596976
C        -3.29784751914372   -0.60048268661680  -22.43830974175491
H        -4.32458098867754   -0.43684092000067  -22.12215356921541
H        -3.05678033299761   -1.65105823390226  -22.28565306498828
H        -3.21682322167866   -0.37582187890086  -23.50048468741675
C        -2.63241507877893    1.76661771955386  -21.90453999095979
H        -3.64662208623247    2.02636747067977  -21.60792884292640
H        -2.51177497747932    1.98657359297345  -22.96413620984120
H        -1.94156597698296    2.38998381525187  -21.33986356393300
C        -0.90858559762353   -0.01474782490735  -22.07551640490875
H        -0.19175651653139    0.59894291755661  -21.53485160719818
H        -0.80981628096016    0.20820937039147  -23.13634265614955
H        -0.66158837341977   -1.06363555200392  -21.92836183188983
C        -1.15597097005500   -2.63252169722808  -16.47206674764088
H        -0.39075547425344   -3.04180228009097  -15.81536510156861
H        -1.33292662769170   -3.33955917232092  -17.27990403922724
H        -2.07554762991625   -2.52871757072852  -15.90323131607600
C         0.62552604718362   -1.49677075538377  -17.77533652534858
H         1.36515737865191   -1.88727857577390  -17.07869386624230
H         1.00476556547236   -0.56059761400375  -18.17792740548602
H         0.51538564681841   -2.21656879459163  -18.58281743068967
C        -0.44997805212844   -0.29373962214221  -15.89366708636567
H         0.37392849928913   -0.63879812729786  -15.27175454076786
H        -1.33016193972912   -0.18747409355677  -15.26720233832014
H        -0.20105864740921    0.68531759332008  -16.29542815948883

