69
CSD_code = DARQAR | q = 0 | S = 0 | Stoichiometry = C28H24F6O6P2PdS2 | MND = 4
Pd        3.04105462835032    1.15244003295833   13.68731450068954
P         1.26471944232653   -0.13925142503678   13.90694622813331
P         3.02987177292155   -0.16813599036061   11.93041962976091
S         4.39601762774989    3.47689233237256   13.26501210793862
S         3.40926329879924    2.28566072486982   15.96294733683173
O         4.92289020577520    2.14645952089940   13.56855345998975
O         5.18961111472451    4.62572679094850   13.50290474283629
O         2.95101746274015    3.56100246335677   13.21689740339463
O         4.10058600513242    1.01427715490696   15.92052394714307
O         2.02053958758811    2.16632231207099   15.54814989249815
O         4.10242070119405    3.46494227211093   15.55147369500737
F         5.95209180064889    3.42576534958746   10.94745996668000
F         3.92639126243988    4.04066318051852   10.54092460770951
F         4.35310784707461    1.97533419495176   10.99990702897535
F         4.35502717245162    2.64475194210287   18.47265919712136
F         2.56507764898314    1.45545514910364   18.34772993406354
F         2.45113220025985    3.59379379032852   18.11927722474034
C         1.97764524132082   -1.47007792121717   12.79234288413568
H         1.27974676493499   -2.03191369298084   12.16630868379453
C         2.86499253396006   -2.38193406511855   13.62862289472791
H         3.53480801100297   -1.76775597347164   14.24368178263136
H         3.47061245783032   -3.02595675975557   12.99175940844858
H         2.26539085166706   -3.00840618472863   14.28824699371477
C         4.68434979573838    3.27268076810765   11.34097738608031
C         3.19334316726449    2.52440082995739   17.82651544702075
C         0.71919693875438   -0.87545234071481   15.46913670694510
C         1.66092760379555   -1.00788213458746   16.48739953504906
H         2.67457737992891   -0.65993478444170   16.33067305347391
C         1.27634593995663   -1.53742141340068   17.70606794798541
H         1.99906948929298   -1.62717501418926   18.50167323188512
C        -0.03732067516826   -1.93048359647905   17.91007738912556
H        -0.33694689745398   -2.33491001659258   18.86515854568475
C        -0.97405587342284   -1.78987531041275   16.89811789651933
H        -1.99925658829398   -2.08542624210152   17.06480392543131
C        -0.60314843981429   -1.25761146263425   15.67605698750879
H        -1.33396948926289   -1.12690178942420   14.89098520067775
C        -0.16760602473657    0.56406885031214   13.05480906092114
C        -1.10295350890580   -0.18778735679645   12.35090220794245
H        -1.01894396908829   -1.26502209206149   12.31325243094897
C        -2.13725799277628    0.45293783439693   11.69141747415575
H        -2.86113634941734   -0.12606402317355   11.13760906312847
C        -2.24351682543904    1.83350241400909   11.74164040212361
H        -3.05377780837351    2.32591855185643   11.22526974398643
C        -1.31522780598396    2.58263690515453   12.44898138474915
H        -1.40192991497751    3.65761606808642   12.48333115487817
C        -0.26971256512342    1.95500007791679   13.10271801360688
H         0.47989310148485    2.52647054420609   13.64791050847042
C         4.59544389673145   -0.91659927054476   11.41276060062348
C         4.83953954313595   -1.48216576103894   10.16724800459333
H         4.06586530559685   -1.50007304703006    9.41493688886773
C         6.09454497487141   -1.99870498109387    9.89195405377041
H         6.29335656982701   -2.43445623247534    8.92425487717241
C         7.09628955238436   -1.94612344305340   10.84762585334562
H         8.07398024327000   -2.34421851372534   10.62124198146683
C         6.85488094682046   -1.36540178060634   12.08413083784464
H         7.64503524630268   -1.30660742710463   12.81674758618786
C         5.60737837999614   -0.84287730138309   12.37166963372514
H         5.41524439756084   -0.33922180378677   13.32066507370251
C         1.94081140242809    0.34711666939564   10.57880949156922
C         1.50780390577176    1.67125016575886   10.56460078205785
H         1.86849167220460    2.36451610436238   11.32086764961687
C         0.61974788384074    2.08910442159790    9.58970179725867
H         0.29150087233732    3.11647124293372    9.57141894513871
C         0.15597091976879    1.19289047241429    8.63966076188547
H        -0.53450999373509    1.52260117056177    7.87816966946294
C         0.57174149353593   -0.12859747489154    8.66530898628754
H         0.20219201319762   -0.82690808798931    7.92920547113968
C         1.46066823549590   -0.55649027288648    9.63547144208342
H         1.77526421297226   -1.59044531443113    9.66660136383416

