108
CSD_code = DARQET | q = 0 | S = 0 | Stoichiometry = C43H54BN7O2Zn | MND = 4
Zn        9.09153692356019    5.30015845047044    1.61294556964092
N        11.05492860141219    5.55597412340873    1.26406697534510
N         9.41579603075280    5.41788991661316    3.56177146377383
N         9.36945541986867    3.35746136759247    1.38223273253646
N        11.82190198617151    4.85939684722256    2.11824381875747
N        10.27427724101282    4.49320249522153    4.01321115190570
N        10.33697802660378    2.84570874905681    2.15480381345567
N         6.82223510945490    8.93064163481173   -0.54007426703922
H         6.40920016205207    9.44368475949332    0.23360052012616
H         7.73790380839506    8.60677063901670   -0.23922407646478
O         6.99889465935698    5.25970206923074    1.68224431530649
O         8.17834203207511    6.68808249491544    0.54985837935513
B        11.20865691856345    3.77551866229990    3.01714015617220
H        12.04527336029455    3.16637377737025    3.58209950891013
C        13.08341227002378    5.32723123609094    2.07695997485218
C        13.12113297579930    6.36475187417314    1.16293028626304
H        13.97246850237138    6.94858927005184    0.87785685675005
C        11.81629685949377    6.47077620518150    0.66936916899188
C        14.19580831567455    4.78483711928875    2.90030535670524
H        13.98287581257829    4.90940689998522    3.96070400422889
H        15.11529352683083    5.31230465463280    2.66159060567228
H        14.33649515234872    3.72325279908107    2.70612812951639
C        11.27092368285100    7.37153014557323   -0.34011889955642
C        11.54788821881765    8.73369119323639   -0.31161524218772
H        12.18440387509485    9.13296861591410    0.46536511908578
C        10.99093817491609    9.57639112913290   -1.25479899680387
H        11.20427941293073   10.63580320706346   -1.21170118871848
C        10.15563166515054    9.08881055455849   -2.25257296979634
C         9.90540125767061    7.72200520805855   -2.29083419342275
H         9.27377825463035    7.31282901942612   -3.06443171915890
C        10.45056688752380    6.87458798402565   -1.34831228330227
H        10.26167449149595    5.81249838928948   -1.39543389624065
C         9.57886496754906   10.02558777546181   -3.28434029863570
H         9.71369617263874   11.05084733809618   -2.92178810079408
C         8.08398992382724    9.79089387056610   -3.50419463891945
H         7.66432845072848   10.60151136294201   -4.09671285686000
H         7.56451777823772    9.74024924924344   -2.54901152150365
H         7.91254654585063    8.86086011779462   -4.04059945126966
C        10.35179443424255    9.87952456434398   -4.59925997807235
H         9.96359772660223   10.56989492344509   -5.34526891063621
H        10.25779536256819    8.86617082929923   -4.98344757078492
H        11.40850836471189   10.09050544278694   -4.44737454038788
C        10.14042152891854    4.36034508969479    5.34442578693062
C         9.14963569059858    5.23292975705938    5.75855257572090
H         8.80274387888512    5.39006472258690    6.75951234953368
C         8.71981680104774    5.88480335062060    4.59690946765804
C        10.94310328857376    3.41596787400693    6.16464276119997
H        12.00767947735624    3.59983942285606    6.03383277940537
H        10.73986842420330    2.38759741740275    5.87036161030360
H        10.68884501897887    3.53706394174251    7.21405153988474
C         7.71426458418752    6.92497079279035    4.43414285618533
C         6.56169079562622    6.92735728592149    5.21344788184383
H         6.40727960911599    6.14337735644518    5.93994572154577
C         5.60657489551315    7.91099615868588    5.04515411917896
H         4.71306541547728    7.89357140075550    5.65408157869641
C         5.77290183306157    8.92143388552256    4.10602564388930
C         6.93174739680068    8.91914212452536    3.33653514165253
H         7.09786544788337    9.69923611760994    2.60748841668919
C         7.89065267209658    7.93827454617899    3.49431689821510
H         8.79122903738097    7.96224994082753    2.89659138307960
C         4.72279507563717    9.99472024023103    3.94790271780556
H         3.91022893253752    9.77933613807397    4.65122956995744
C         5.29827344716973   11.37009759144952    4.29341567047079
H         5.70784710805529   11.36602121540164    5.30120807562290
H         4.52020850705988   12.12857430961016    4.23831639315211
H         6.09218195370222   11.64174926888924    3.60213746967442
C         4.13544725181761    9.99434938549931    2.53499151645903
H         3.32662553529059   10.71873143910027    2.46366516866976
H         3.73899878770741    9.01082026210315    2.28936100343205
H         4.89223938403502   10.25944107009874    1.80022562420036
C        10.31777065153398    1.50262764774298    2.07142534634632
C         9.29035385946796    1.14595603720483    1.21618971612330
H         9.00915194588995    0.15599481545582    0.91986426690948
C         8.71827681511883    2.35343746234239    0.79955669843824
C        11.26713643498506    0.61365935373986    2.79107364340069
H        12.29411668502335    0.85066969706604    2.51966900471708
H        11.06327810043067   -0.42176585445897    2.53231715497055
H        11.16733336157639    0.73370049298280    3.86826100552421
C         7.60791901070235    2.60560790083692   -0.10818540859166
C         6.49165347997008    1.77437149886207   -0.12723355913725
H         6.45649523717985    0.91532585911654    0.52678974279623
C         5.41923088747639    2.06091180247423   -0.94846775161344
H         4.55714032398237    1.41016115749550   -0.93251954575170
C         5.43057041059619    3.17634606962299   -1.77853190434192
C         6.55967368357258    3.98577609648093   -1.77658082954497
H         6.59491215852151    4.85028560504589   -2.42493497304588
C         7.63495921705452    3.70875158291168   -0.95625137612767
H         8.50743485524277    4.34597515835614   -0.97528535514086
C         4.24917833781016    3.51818150611273   -2.65292748712455
H         4.50212156787229    4.41495963471657   -3.23020714017841
C         3.02234852935372    3.83578355690610   -1.79470202850024
H         3.24724123381855    4.63711166332665   -1.09378642263323
H         2.71351821502394    2.96272915247345   -1.22529344173679
H         2.19134766755140    4.14836730734572   -2.42375099013238
C         3.94358773996531    2.38869749957016   -3.63859270138625
H         3.13453490173489    2.67987955447569   -4.30520964651566
H         3.64493551613534    1.48538753439132   -3.11275056838606
H         4.82233104761147    2.16198969378846   -4.23841221266597
C         7.06194921196375    6.22267420067889    0.89919484472219
C         5.78332482876778    6.84125113475145    0.37141741539622
H         5.10580631223902    6.02321347044439    0.12065662485158
H         5.33542258120475    7.40264478311135    1.19703083889011
C         6.00495210908688    7.76607324343896   -0.83803726805967
H         6.54535424741541    7.20340629620443   -1.60742004739794
C         4.66227627577978    8.22739687960376   -1.40168515186280
H         4.83032125154181    8.89684424777011   -2.24075877880706
H         4.09708934722635    8.76244618621840   -0.64118953334467
H         4.07543083874600    7.37683100077686   -1.73851620888427

