55
CSD_code = DARQAO | q = 0 | S = 0 | Stoichiometry = C15H33MoN3O3 | MND = 6
Mo        0.00022196194103   -0.00032014282030    0.00903401105991
O         1.44931952902108    0.67278549003619    0.46146642280413
N         1.08820627015893   -0.77315664743504   -2.07276538021833
C         2.29825792924368   -1.63141324474266   -2.09133469258999
C         1.98006175327929   -2.93498212518597   -1.35155077914030
C         3.41670026727182   -0.90862235864620   -1.33316218103986
C         2.74942379887809   -1.93802727861468   -3.52791727065722
C        -0.12775498302254   -1.35058577699867   -2.62156740458118
H        -0.12386482830037   -1.31237317252718   -3.73510839117723
H        -0.22556855626233   -2.37996626504546   -2.28543125056111
H         2.90088841642505   -3.42554536435909   -1.05072371718494
H         1.40068311792475   -2.70312533272587   -0.45488119385825
H         1.42662014356241   -3.63586071692943   -1.97356041020132
H         4.18029298928989   -1.61915347489313   -1.03127039477336
H         3.90213861585738   -0.14900333384360   -1.94286201822610
H         2.99812641878714   -0.44583676573047   -0.43646320270290
H         3.63266360230363   -2.57027200290489   -3.49483357306430
H         1.97831028939876   -2.46826823593819   -4.08343045873665
H         3.00839345135264   -1.02874788865386   -4.06691697769503
O        -1.30730657199510    0.91791009198090    0.46166290683713
O        -0.14122270192411   -1.59173658441242    0.46201323897546
N        -1.21403325962465   -0.55579717373328   -2.07294726401675
N         0.12539098052509    1.32938794041775   -2.07352478046168
C         0.26388468496234    2.80642820698563   -2.09124092452586
C         1.55149814913700    3.18205588717423   -1.35045040925615
H         1.51599710001372    4.22470253103850   -1.04923221241109
H         1.63968496740489    2.56391695509894   -0.45401447018448
H         2.43557673604140    3.05322649681560   -1.97194739409392
C        -0.92164864773443    3.41335972820600   -1.33345648902376
H        -0.68808732001981    4.42963209278572   -1.03067471207384
H        -1.82173191992641    3.45462097090296   -1.94379974466496
H        -1.11382646231826    2.81891536929052   -0.43730130024848
C         0.30495239136007    3.35147067488324   -3.52742469133744
H         0.41085641299612    4.43248761178713   -3.49347853186089
H         1.15017372192218    2.94917370518576   -4.08251648048918
H        -0.61153390564024    3.12147368639642   -4.06735325727602
C         1.23324197734507    0.56493131440185   -2.62205129028120
H         1.19814351389555    0.54840566429168   -3.73559484205199
H         2.17369629242231    0.99501030857626   -2.28629562617713
C        -1.10610334123884    0.78590773307883   -2.62196711574109
C        -2.56223383760381   -1.17484915324554   -2.09098945628328
C        -3.53210846766741   -0.24722694367330   -1.35164708915839
H        -4.41717502006153   -0.79940668622458   -1.05025102928499
H        -3.04149238026156    0.13927146942563   -0.45533804278929
H        -3.86267030201184    0.58200562407917   -1.97417035343347
C        -2.49513710036370   -2.50438232542307   -1.33201637360719
H        -3.49216334480090   -2.81032786250675   -1.02969417138750
H        -2.08012555378980   -3.30495261706351   -1.94133559346053
H        -1.88488211951013   -2.37270817084262   -0.43552123493067
C        -3.05349597470282   -1.41333637227095   -3.52735627419650
H        -4.04277089780282   -1.86185179152694   -3.49383514390293
H        -3.12693691709323   -0.48086774853016   -4.08366625615489
H        -2.39572875606365   -2.09288276226863   -4.06582952314400
H        -1.07502762367306    0.76327119594020   -3.73553883519655
H        -1.94867468930891    1.38533557093713   -2.28593637016239

