85
CSD_code = DARQOD | q = 0 | S = 0 | Stoichiometry = C39H36BN7OZn | MND = 4
Zn        2.78402383482572    2.50267293509244   22.03352355622352
N         0.79695663646704    2.59322054975854   22.43357549432520
N         2.53701154207693    4.06161491707780   20.78971687962804
N         2.46299988327533    1.03568718788511   20.76173573087718
N         0.04734004403042    2.57366757835947   21.32030200165628
N         1.55828916990885    3.87572232888885   19.88915277417315
N         1.62241761891376    1.37341060783553   19.77435200406025
N         4.15672466869668    2.37883850199437   23.29137487279099
O         5.43448873871557    2.01344830578862   21.42451739145846
B         0.70675603758985    2.58927367600828   19.92276910055666
H        -0.11327652069096    2.60466247881672   19.07635715883707
C        -1.24846766686830    2.74215032210572   21.64310476722837
C        -1.32766910978179    2.88804486604221   23.01634092681762
H        -2.21139450538546    3.02656400958285   23.60512228880194
C        -0.00974565170435    2.78673097595321   23.47499977562277
C        -2.35867467900469    2.75487600505534   20.65501732377373
H        -2.34099481157958    1.85297517108804   20.04672561626721
H        -2.27418873770936    3.61268883765042   19.98992689866813
H        -3.30933428771981    2.81093631675504   21.17837774530810
C         0.49469690465122    2.89389799807153   24.84022827717258
C         0.01346313658204    3.89408961381182   25.68129046600883
H        -0.73793833107426    4.57914644148621   25.31589868185128
C         0.51032767282832    4.02583718945543   26.96410189773880
H         0.14210044128724    4.81324756108201   27.60540814677688
C         1.47936485688547    3.15207334101426   27.42724234311949
H         1.86834651612632    3.25678486117745   28.42906588771892
C         1.94631581656342    2.14257263289829   26.60304528757055
H         2.69007639809380    1.45168496338627   26.97205047009367
C         1.46351168286904    2.01454435476926   25.31418289203187
H         1.82197493673024    1.22621513357704   24.66942243102217
C         1.35414406956244    5.01038565904176   19.19641513255308
C         2.22723431961921    5.96519649630848   19.68461438073648
H         2.33879252677844    6.97687596852002   19.35140242293365
C         2.95505879634379    5.32247212789499   20.69153082081042
C         0.35062889021441    5.15206572143130   18.10910424483135
H        -0.66067048777394    5.06764780696688   18.50399574899108
H         0.48506026196885    4.37691062955552   17.35773067179478
H         0.46115979117359    6.12505148524991   17.63807950631848
C         3.97815163684721    5.89233476626057   21.56567366641491
C         5.20031468639558    5.25511195672586   21.75062367891340
H         5.41038179762025    4.34327732561650   21.21469922631574
C         6.14320734703871    5.80444182434266   22.60047897282247
H         7.09360360148320    5.30924997786662   22.73529916227348
C         5.88016141227720    6.98740584802384   23.26909878065133
H         6.61574578990994    7.40771728489663   23.93905820543272
C         4.67208500367403    7.63502111336107   23.07271192442540
H         4.46691980304657    8.56329301678296   23.58606735340932
C         3.72673800280566    7.09475487285987   22.22176294836898
H         2.77957996302051    7.59391265433001   22.07273001803017
C         1.75265839438078    0.50802591081019   18.75179033284798
C         2.71911892261454   -0.41706336498319   19.10303264191321
H         3.05839987983009   -1.25035465659284   18.52219196962382
C         3.13945480242526   -0.04716699525638   20.38542112921997
C         0.97141275929958    0.59377977314913   17.49027046793105
H         1.16030013779519    1.54102531684953   16.98823406993847
H        -0.09617645809785    0.52454031519067   17.69155438471280
H         1.25875606016541   -0.21847904863289   16.82833893224666
C         4.11774895059550   -0.67231038600042   21.26466373344115
C         3.88809018002063   -0.72051504557723   22.63742554290025
H         2.96124769685018   -0.32927387268321   23.03222126824135
C         4.82848051184820   -1.27771944976637   23.48239424231024
H         4.64500567007680   -1.30884626271293   24.54735516714249
C         6.00468718518279   -1.79746828835445   22.96745094442150
H         6.74313154539050   -2.22687537591179   23.62951075334241
C         6.23152511269398   -1.76718655779613   21.60160493722924
H         7.14875006607973   -2.17175598557485   21.19867255658048
C         5.29332604888758   -1.21169403039754   20.75239005191504
H         5.48036064128925   -1.16638365870778   19.69027366771095
C         5.28919327623809    2.16366767519549   22.62565630724210
C         6.17704396762451    2.21172189792983   23.86211054534185
H         6.88206892930384    3.03850171099015   23.88821239092089
H         6.67864554408876    1.27806581072071   24.10489386946962
C         4.83466958284318    2.46900439681197   24.58871269644401
H         4.54636376146393    1.64849555307152   25.25902826243263
C         4.69133099902365    3.77769110954020   25.30885293752319
C         5.56915301018938    4.09529298002698   26.33882216773576
H         6.35420279840158    3.40013947952409   26.60162584371934
C         5.44333728848507    5.28882845182702   27.02511853368214
H         6.13364338999131    5.52690266636923   27.82181953202172
C         4.43300572838308    6.17636290658180   26.69497650912463
H         4.33284417528404    7.10728742809456   27.23390506409238
C         3.55413112305317    5.86439152379412   25.67300607015314
H         2.76185983765231    6.55004011462286   25.41100424015021
C         3.68502328109210    4.67448393508896   24.98119955141064
H         3.00110575161202    4.43513782474389   24.17965273029479

