75
CSD_code = DARQIX | q = 0 | S = 0 | Stoichiometry = C33H32BN7OZn | MND = 4
Zn        4.09494056498466   10.13593730501249    8.96828546511253
N         5.42245753094895    8.73252096906852    9.39306431261111
N         4.27238752187056    9.59820868960846    7.00004172659406
N         5.33336300775490   11.63590282770176    8.61238673784640
N         6.60710727028152    8.89147905407831    8.79186960011087
N         5.55687598321056    9.49431166461457    6.62495275961326
N         6.51674698982832   11.27136758101147    8.10385766192545
N         2.52868972038892   10.37180029455463    9.98383615512686
O         4.33039559833103   10.75685786301592   11.32674368065234
B         6.71342662386669    9.83878266308616    7.58145310393982
H         7.75526335362910    9.72543841755298    7.04126207302172
C         7.54356957664262    8.17261256934326    9.43668452199917
C         6.92788668110267    7.53456474545909   10.49912439497903
H         7.38296537900161    6.87354719483810   11.20846774478635
C         5.58369715320784    7.91783105857103   10.43242568549127
C         8.97301966831873    8.12154293936799    9.03238588246732
H         9.44411906561086    9.09347721492315    9.17120470451754
H         9.06957644483425    7.84570262089241    7.98431957017654
H         9.49782134935963    7.39050977852915    9.64127416230152
C         4.45866620348198    7.55380076952806   11.28204708111516
C         3.19325940576502    7.37455562388785   10.72701621727740
H         3.06049818343132    7.46827800521305    9.65785931904387
C         2.11785460792830    7.06015976968125   11.53629564848359
H         1.14003507853599    6.91750994139153   11.09850647384192
C         2.29024184992689    6.92378000120556   12.90411793724026
H         1.44668562190578    6.68427404052139   13.53572618361195
C         3.54756749286172    7.09276013828794   13.46012178711870
H         3.68439300606304    6.98794584571774   14.52685550602711
C         4.62783270393611    7.40144210000386   12.65505460881308
H         5.60467471281627    7.55131329814403   13.08973282054186
C         5.62761263873684    8.99965033856016    5.37475758454326
C         4.33725103807957    8.77072996782454    4.93661136911768
H         4.03817909453007    8.39568185587355    3.97929758126843
C         3.51029993941460    9.16454138466055    5.99632697144342
C         6.89810569503617    8.75575069550215    4.64287755866612
H         7.50695372939986    8.02033855621296    5.16574496868588
H         7.47561081006361    9.67400121158799    4.55655414394766
H         6.67613998354939    8.38357934941686    3.64632611213445
C         2.05550830655431    9.13138677130898    6.06381419913636
C         1.34434610286489    8.16476818751163    5.35428229573896
H         1.87905242431463    7.43263883892036    4.76738406946370
C        -0.03588312304378    8.12645673973620    5.41425878657043
H        -0.57676636588031    7.37049012578131    4.86344248349442
C        -0.72566815447991    9.05137586150319    6.18077459273383
H        -1.80439028836106    9.01906003942205    6.22726567823033
C        -0.02644153872661   10.01817446102722    6.88457272209235
H        -0.56094706586265   10.74403984686566    7.47968651939572
C         1.35342739248362   10.06255478084175    6.82546601295735
H         1.89739390832753   10.82429376372548    7.36177170745763
C         7.40188409016522   12.27405156304129    8.25052563064474
C         6.75568360449862   13.31753323319499    8.88947786922209
H         7.16617883108341   14.27174252781762    9.15053310111881
C         5.44778116141470   12.86859763667544    9.09967475578187
C         8.81049355647401   12.21231509062821    7.77982849817119
H         8.85014737737139   11.99610419979941    6.71383183938136
H         9.35742710387493   11.43002268632186    8.30289192511069
H         9.29835016816114   13.16527149755338    7.96572904887094
C         4.31516334247117   13.53551469842371    9.72865921717197
C         4.48699611485384   14.27569205957947   10.89405247683861
H         5.47208570052991   14.36308115079475   11.32706839095414
C         3.39933861809586   14.86600396025169   11.50988855957149
H         3.53794263727973   15.42855513424764   12.42193893016521
C         2.13272487933817   14.73279448803713   10.96541218155751
H         1.28368456354257   15.19283046326726   11.45056324043250
C         1.95783397076096   14.01206949795707    9.79549035184047
H         0.97234071155627   13.91926371813420    9.36133711063905
C         3.04127938994257   13.41476806638873    9.17961291607240
H         2.91292716378899   12.86908894060923    8.25574778478177
C         3.12446429951225   10.67216697924998   11.12903871475453
C         1.83646918357202   10.83102099900035   11.91799788480363
H         1.64788551843822   11.83569938546430   12.28791845039472
H         1.69685118325304   10.10152981409523   12.71175054886693
C         1.18834906680549   10.48106266290593   10.56649026782499
H         0.63130562523630    9.54191233718047   10.54113132277162
H         0.59040926112435   11.27827944828004   10.11872009886318

