36
CSD_code = DARTEY | q = 0 | S = 0 | Stoichiometry = C14H15AgClN5 | MND = 2
C         0.09858879330841    1.20189907545821    8.76436089084267
C        -0.34209501535258    0.20383289628919    6.80411536719131
C        -1.49688238018773    0.76772593713525    7.26651136495192
H        -2.47006044768153    0.76858837916285    6.82236700804171
C         1.99812456377163    0.08841397752987    7.67325561324959
H         2.51047401044994    0.46541865300889    8.56294391540485
H         2.47278154172602    0.50908482497841    6.78511589661553
H         2.08096954057987   -0.99950959168077    7.65111152364765
C        -2.16193548640468    2.07375430467800    9.25352948428383
H        -2.98238931890092    1.41278358077460    9.53669558898196
H        -2.56651798284577    2.92183460482839    8.69883379659809
H        -1.66544052337626    2.43860032961950   10.15616091952831
C        -0.18261110352825   -0.53579387490574    5.58056324608466
C         0.89368496923202   -1.16444933009885    4.97475509286586
H         1.92432151016440   -1.28102725418050    5.23033092505850
C         1.07071205870797   -2.39934333809865    2.79892425399142
H         0.29880675303838   -2.83826615284136    2.16060627440776
H         1.67254341815905   -3.19821730968492    3.24149289169698
C         1.93929432679886   -1.45386822289762    2.00389641839225
C         3.31041774332593   -1.64209133564421    1.91438069208743
H         3.77165281804614   -2.48772282764544    2.40491088957508
C         4.08921295717246   -0.75491287141068    1.19044632898916
H         5.15532250613321   -0.91080528102818    1.12128789242872
C         3.50308509821935    0.32967815003589    0.56161464318339
H         4.11153746894085    1.02204453046212   -0.00028375352513
C         2.13463040149409    0.52543650730883    0.65419071285185
H         1.67391754237114    1.37064197357767    0.16553574053375
C         1.35474595306312   -0.36324795282541    1.37110780867021
H         0.28665839013262   -0.21604476261837    1.44567213274584
N         0.62186927253640    0.48713988176247    7.74525654613472
N        -1.20359451664984    1.36539566055738    8.45368885227948
N         0.37807148919306   -1.68868100197602    3.84122823496249
N        -0.91082693005149   -1.39830106575652    3.75026643056683
N        -1.25940418025863   -0.72080752495013    4.77053618161372
Ag        1.12333991238328    1.90524838031741   10.52236445457802
Cl        2.20629484636719    2.61306805063498   12.34122574055011

