76
CSD_code = DARYEC | q = 0 | S = 0 | Stoichiometry = C36H36N3Y | MND = 12
C         9.00590569275779    1.53159685708853    4.43125977056937
C         8.02568657077275    1.56755673264786    5.49428454860138
C         7.69433212509700    2.56741083462956    6.44186707161553
H         8.20346840132929    3.52935734112161    6.44350409925915
C         6.81369147207633    2.26077632277331    7.46256758730141
H         6.56467055568749    3.01759732151513    8.19363871174538
C         6.26110717791814    0.98368873853733    7.58687404507456
H         5.58238424364743    0.77856709436125    8.40240420171630
C         6.61535197357476   -0.02683046699984    6.71176398408087
H         6.22919371607856   -1.02715896412134    6.84716117468863
C         7.49569411074869    0.24627436599089    5.67353072314018
C         8.11093160889556   -0.60409925842151    4.69580368365083
C         7.91505427884630   -1.94659483777901    4.39813849960548
H         7.20608036057577   -2.53316088348482    4.96519989067718
C         8.63064273654953   -2.51563128554109    3.36551901364257
H         8.49441308930863   -3.55948046011036    3.12232905959938
C         9.52286545491411   -1.74854637979196    2.61610210464961
H        10.05631385622002   -2.21158561671255    1.79736169435690
C         9.73182066300331   -0.41478357970015    2.89357238195455
H        10.40793192111965    0.16230321678324    2.27821516589149
C         9.04520722794743    0.17819871966971    3.95584168111799
C         9.74516592818908    2.65640095098929    3.96807335067228
C        11.07569767521263    2.57308172085696    3.49849946289294
H        11.56718706878892    1.61373178240464    3.49237690304144
C        11.73933186802434    3.70825085760293    3.11403550578963
H        12.76082355375961    3.65753107631293    2.76539487488197
C        11.09011247832925    4.94456097258958    3.20759665793951
H        11.59137097842258    5.85986352667523    2.93694285831293
C         9.79086111966386    4.96023014591250    3.66496121502769
H         9.25362251815204    5.89870018596822    3.76580166399941
C         5.95496973856725    1.50385026704026    2.36940467519016
H         6.87044703339811    0.95207439524484    2.11182245004434
H         5.24763677653966    0.75835627207823    2.75135950196607
C         5.38583135128200    2.13738786121268    1.16085887619303
C         4.11443653595289    1.79204693737284    0.69210582063435
H         3.55700593334464    1.03054002435021    1.22153494549680
C         3.55882781492110    2.38703707832953   -0.42303942959206
H         2.57517915326819    2.09272521039324   -0.75882110303649
C         4.27059231874759    3.34943868808627   -1.11636433976699
H         3.85507195129793    3.80992227304647   -1.99984641409582
C         5.52614655615627    3.72654303439807   -0.66727556205544
H         6.06235440333493    4.48799182818939   -1.21330452086058
C         6.08464613104855    3.14772620225634    0.46097327482375
C         7.65396260011330    4.99228180363106    0.74035771114894
H         7.93226133607917    5.17245117391611   -0.30662686881372
H         8.49933680869153    5.29170897809482    1.36299816542921
H         6.78989473617509    5.60809327188127    0.99059847482775
C         8.45313598257608    2.75885207714294    0.51365989188209
H         8.23544947307699    1.70456691576591    0.66949749805573
H         9.37007962185381    3.01184035280193    1.04849733744401
H         8.61862584449664    2.91987986353228   -0.56073819224502
C         5.80298746849588    5.33386746649391    4.14040259428920
H         6.47704104073080    6.19902993537325    4.10404690278986
H         5.02426161165661    5.50712738990237    3.38554094448098
C         5.20675406476341    5.24570219974788    5.49564884268249
C         5.56594496021715    6.14895040547124    6.49926198773088
H         6.27719025770808    6.92992928466290    6.26468309410257
C         5.04567178104133    6.06686027017172    7.77614910997602
H         5.34530885052983    6.78263701449289    8.52775422237665
C         4.13543192801891    5.07280366056567    8.08611213736819
H         3.71202995491173    5.00586494935731    9.07703716458545
C         3.77248473124430    4.15054465957197    7.11748722760788
H         3.07584544576625    3.36958672798028    7.38106990927133
C         4.29913217291897    4.21564659693920    5.83768399201568
C         2.96620275390499    3.64694482664403    3.91972592710724
H         1.98191947410656    3.59644554661412    4.40545164250084
H         2.95900510865657    3.00434210442654    3.03827938119903
H         3.13010544598818    4.67349444390245    3.60254306898823
C         3.67655939244919    1.90138528228027    5.36986317811285
H         4.40398590711337    1.60208545792880    6.12417930472942
H         3.69627404306523    1.17830541987320    4.55331412317175
H         2.67000363883841    1.87954971707328    5.80926814699084
N         9.10841076028702    3.86784655545372    4.01148727158679
N         7.35146118208995    3.58668224306920    1.00960680342231
N         4.02657462763257    3.21489120694807    4.83316305725415
Y         6.70620087121460    3.21145509436343    3.76636618761830

