64
CSD_code = DASDUY | q = 0 | S = 0 | Stoichiometry = C23H36Cl2N2Zr | MND = 8
Zr        3.41927529018269    6.57934685404739    9.10967887936340
Cl        1.47788929619872    7.77800605403335    9.61563840974268
Cl        2.47032199422356    5.04614924733331    7.59744481183630
N         3.97319708568879    5.52569514289405   10.69165023587067
N         3.85958732066483    1.33689053505809   11.04200680549473
C         5.35013990702890    6.67857824888501    7.65411524048848
C         4.35248324502315    7.40070847531688    6.94092505348516
C         4.03364876212067    8.55705807133894    7.69040741427596
C         4.85525901429490    8.58176510588077    8.85434441615981
C         5.68354351438956    7.41895556144809    8.82899615529330
C         6.00164857246816    5.39745485985358    7.20508547992037
H         6.71779433718999    5.58646012092094    6.40142349909571
H         5.25272209981352    4.69648152504555    6.82740580410876
H         6.53563206405189    4.92535958123810    8.03029424679115
C         3.81649682059302    7.07357983815109    5.57556794780258
H         2.73198088670404    7.19120616625623    5.53630386153388
H         4.05480187590876    6.04849880073270    5.29925483812145
H         4.25624883471430    7.74149809325650    4.83063552696875
C         3.08634865085848    9.64897204701063    7.27926949774863
H         3.62673011310703   10.46134391579498    6.78570741224244
H         2.57036526939210   10.06623346713444    8.14543136310154
H         2.33780407508650    9.27133922563523    6.58263805931775
C         4.94493186789642    9.77664204192303    9.76599887122640
H         3.98167944238276    9.99928508803355   10.23143822578275
H         5.24053731633491   10.65552718344526    9.18861427711847
H         5.68267790131660    9.63270332714277   10.55224999008166
C         6.84304300490155    7.08635360113173    9.73339262215819
H         7.73613428999619    6.89660883707652    9.13520109721355
H         6.64206655273163    6.19496670573358   10.33454806159538
H         7.06790590953867    7.91548183069273   10.40219838239310
C         4.00702742293288    4.09861727050327   10.41365595252416
H         4.71037687537864    3.57092045492926   11.07619529800788
H         4.38861231894564    3.98806865745754    9.37964575343383
C         2.66892258456425    3.37744931962273   10.51564497835352
C         2.63259437146709    2.01365574952561   10.84454964835869
C         1.39857643911920    1.39112746596047   11.01679936712716
H         1.35622861957760    0.34660900372858   11.28560919451212
C         0.21974905914206    2.08871237393799   10.83075945165830
H        -0.72666363194186    1.58413227547262   10.95869931620583
C         0.25486972095521    3.42510906440503   10.47459228454241
H        -0.66118702678546    3.97455228332274   10.32031837591228
C         1.47539532035689    4.06183446000362   10.32770719347075
H         1.50581907846448    5.12619491515880   10.08937659638077
C         4.56705770860197    0.99747366165993    9.82221458681904
H         4.18412240208595    0.06875609687480    9.37501484107177
H         5.62606303783213    0.85970277390351   10.04831528682928
H         4.45841129279876    1.79384048711423    9.09146791242494
C         3.84763029186631    0.23363435723512   11.97648203212842
H         3.29285091519310    0.52033046194409   12.86780277937968
H         4.87971045403023    0.02030242446089   12.26072863610188
H         3.41450603761374   -0.68893472147717   11.56374029387021
C         3.88025736990522    5.94444569000047   12.08845637070620
C         4.09144361041676    7.47021293107679   12.09324853767196
H         5.10045600649358    7.70603250063937   11.76272296038477
H         3.95366026487446    7.86497648692642   13.09808950385259
H         3.35791006800675    7.94294507064693   11.42911396510030
C         4.97178292418240    5.29091053532219   12.96007027067656
H         4.74351098073209    4.24520171643583   13.14877700560441
H         5.03138051363242    5.80153136481999   13.91766421864993
H         5.94098267785705    5.35892510298916   12.46952549944872
C         2.50644371410152    5.66781918639666   12.73578550178165
H         1.72076961874494    6.18446969445637   12.18368295171156
H         2.50772345662087    6.03455532546381   13.76044910777978
H         2.28911018737943    4.60323600672022   12.75412784129747

