61
CSD_code = DASDOS | q = 0 | S = 0 | Stoichiometry = C22H34Cl2N2Zr | MND = 8
Zr        4.35686362742239    3.64190796692746   12.19779321987075
Cl        4.67773061856619    3.78250476143413   14.52512792371325
Cl        3.89434315995423    1.34286606931792   12.44229106000349
N         2.98622538906760    5.09687839756384   12.03251415201080
N        -0.46600236479844    5.27657780668009   10.02642417172947
C         5.91264147227785    5.22415911622633   11.02281413149195
C         6.56778578916862    4.61088258060049   12.12797208835135
C         6.70242644346849    3.22009504590685   11.84664504729280
C         6.12659947397457    2.97849662546479   10.57043117196920
C         5.64825009323923    4.21865298963698   10.05371189256944
C         5.66165238648154    6.70459136107286   10.92622737830388
H         6.56596887776109    7.25499314926650   11.18797421315306
H         4.86712921741339    7.00539622958505   11.61573187563413
H         5.37291538507832    6.99592166132695    9.91821501992426
C         7.13587476727158    5.35659240540144   13.30372430277531
H         7.42507324924584    4.66926785109098   14.09667538076942
H         6.40391185668217    6.05988770854996   13.70793506001599
H         8.02156371870206    5.92171037844923   13.00082350380937
C         7.33739756056664    2.19638881730394   12.74963742477395
H         8.41965703962863    2.33818862715947   12.79626947625369
H         7.14044213484513    1.18926430069386   12.38365534378248
H         6.93946185625174    2.27755399076923   13.76625150651361
C         6.13043367960799    1.66223786150958    9.83857775990939
H         5.60167422964624    1.74583307453178    8.89008814639167
H         5.65257474098920    0.87752882902177   10.43061692495705
H         7.15415605807663    1.34617815537451    9.62766421546952
C         5.20116261964100    4.43175366460497    8.62944655329100
H         5.00286213401417    5.48450063660417    8.43730617860162
H         4.30240650467244    3.86521601471865    8.37362294827844
H         5.99323293623142    4.11867350209745    7.94580417536145
C         2.36963987682325    5.31213875208586   10.72673529301181
H         3.17093553748457    5.55942483985503   10.01603512695662
H         1.68355898577060    6.16262440935054   10.76588149016888
C         1.62825921001448    4.07709030043664   10.24236867638670
C         0.24706174670046    4.06302782199730    9.98024685986956
C        -0.37477555020235    2.83691185822363    9.74155720623008
H        -1.43866226729465    2.80040297280051    9.56641710531749
C         0.34951374460336    1.65917542647061    9.71342071546060
H        -0.15854100132030    0.72529003091978    9.52659301634915
C         1.72100144721863    1.67930954618683    9.90136112636461
H         2.29887362973682    0.76889931628663    9.85963966254723
C         2.34464828780501    2.88756682760265   10.16794985735101
H         3.43156088133793    2.91703518256693   10.32253127728122
C        -0.19518233061012    6.20038493637228    8.94107146315318
H         0.84957824537534    6.14346456553787    8.64799586262232
H        -0.42066874221558    7.21681574362724    9.26866711719106
H        -0.81239477574871    5.97695829453531    8.05902312781537
C        -1.87804628593491    5.20353741662491   10.32835327901692
H        -2.49162458715636    4.88158158917804    9.47502790843207
H        -2.21148401520279    6.19952563657850   10.62437916601353
H        -2.03808571568830    4.52263068265729   11.16213636266844
C         2.06788911166367    5.15013523234676   13.17315810614528
C         1.36455314592665    3.79504074011814   13.42845478317786
H         0.66736007395424    3.56463741524966   12.62248430043662
H         0.80950935331796    3.83855917414043   14.36460331841679
H         2.10519370313377    2.98707509719638   13.50549832086781
C         1.01087220359435    6.26258886566524   13.10041198979278
H         1.47910659687919    7.21249302512408   12.84995553554475
H         0.53654934054309    6.36243529504943   14.07344169813865
H         0.24282119784474    6.03045904843165   12.36658892778331
H         2.70096429653031    5.37048037798752   14.05113907255211

