55
CSD_code = DASFOU | q = 0 | S = 0 | Stoichiometry = C26H20N4PtS4 | MND = 4
Pt       10.57714010430096    6.20051531006018    1.98793330307823
S         9.03168521258679    4.58089726389776    1.55119368626253
S         9.05837880080228    7.87166246793498    1.49669688244661
C         9.89984899382457    3.09828361885099    1.79217757110729
C         6.98463873796988   10.34174313456279    1.95318785572834
C         9.91768364281033    9.31690087202524    1.71009762069250
C         9.89556586527715    0.68569061288291    1.78569524937158
N         9.34116701881576   10.48452161581747    1.33385561854944
C        10.14727003403426   11.67997422811887    1.34571995154269
H        10.80239257269197   11.70219997729561    0.46271879996560
H         9.49859423110829   12.55636271276565    1.32225079536020
C         9.23366347313831    1.88908750857582    1.60456341877913
H         8.19332694626766    1.89886927347360    1.31571503635290
C         9.20984467987020   -0.53298089355334    1.59357709204547
C         6.09806571890422    9.27471163464140    1.96572146742487
H         6.11141566776532    8.55808178560144    1.15862381728536
C         7.98405376684497   10.50880500141780    0.83117910837918
H         7.85825582196882    9.69986634670446    0.10393377236577
H         7.83020276349509   11.46348176710229    0.32308079899649
C         5.20399368763672    9.12129446090381    3.01109497940449
H         4.52127543835009    8.28535355311246    3.01240603408214
N         8.63675566247217   -1.51312280998256    1.43355593847642
C         6.96446753593001   11.25256523354904    3.00237948564237
H         7.64736958842248   12.09098250925447    3.00194948512219
C         5.19113643142288   10.03029017410043    4.05467841187808
H         4.49695250437765    9.90816998156844    4.87232249328817
C         6.07270339780327   11.09808738314568    4.04809492228217
H         6.06557850402008   11.81254810317291    4.85811248190293
S        12.12255929612456    4.57932471685388    2.42030502691182
S        12.09312674936953    7.87500157529621    2.48009307251924
C        11.25495550850849    3.09752893766606    2.17126385458766
C        14.16496500845256   10.34254432612924    2.00925487077891
C        11.23299408643996    9.31871258965345    2.25871194589911
C        11.25969182256992    0.68483159410243    2.16367956022073
N        11.80855456782888   10.48885748086366    2.62858269016970
C        11.00178977529934   11.68382257733837    2.60961298472243
H        10.34657523402551   11.71089352026914    3.49239565511249
H        11.65004052227932   12.56065643797361    2.62802819552607
C        11.92134276886347    1.88732598069892    2.35187308311364
H        12.96168663238459    1.89551940869017    2.64075294977018
C        11.94517239116645   -0.53510624959898    2.34846989606834
C        15.05521722466028    9.27852175735171    2.00674678846641
H        15.04482722252334    8.56995351311268    2.82100166456968
C        13.16588194483702   10.51722516979448    3.13039502982772
H        13.29241708317713    9.71363070381610    3.86341538168092
H        13.31961433951458   11.47559699252484    3.63156374165585
C        15.94918051477246    9.11783173554671    0.96238512435590
H        16.63484514262053    8.28433530613910    0.96897085350547
N        12.51722995926200   -1.51699755699323    2.50152152366797
C        14.18131734783097   11.24298829326759    0.95106591049459
H        13.49547385975870   12.07897814809954    0.94357269803482
C        15.95809693284931   10.01635242828008   -0.09029221353103
H        16.65198827748697    9.88835178378042   -0.90728855655281
C        15.07280735240123   11.08108404480438   -0.09376313647877
H        15.07672163213476   11.78729195748067   -0.91103467289499

