101
CSD_code = DASJUE | q = 1 | S = 0 | Stoichiometry = C51H44ClNiP4(1+) | MND = 4
Ni        5.11060626753827   23.89220215238418   16.33742428466314
P         6.22087562770561   22.05354971010701   16.31008451707218
P         5.17512887151077   22.12575973510581   18.97459162535984
Cl        5.52040345550065   24.43267511542778   14.34841676836187
C         4.39971193668070   23.41538715865568   18.08881595823225
C         6.65155359429164   21.54314116324952   18.04468251182406
H         6.83493796162324   20.47124543288891   18.15121647832512
H         7.52534813266798   22.10765511991483   18.38776929028480
C         4.96367161599016   20.82479095168670   15.85722290978797
C         3.74566202005041   21.30232860486820   15.38390903894948
H         3.59845599228773   22.38300612672927   15.28690812187278
C         2.74244207420539   20.41872954194015   15.03329311461570
H         1.80018708963588   20.79119914914080   14.66016645623554
C         2.95517044022287   19.05563551322562   15.15838536429359
H         2.17412966355407   18.36094085659992   14.88923069922325
C         4.17341928839933   18.57640081299034   15.61552076825119
H         4.33750072300735   17.51258023378088   15.69803516786293
C         5.18379189464066   19.45534220090471   15.95750199253633
H         6.14193817355304   19.08075677689522   16.29127572754058
C         7.63926394128291   21.57019839873413   15.29993676639161
C         8.90939607849841   21.33681338322806   15.81572831052593
H         9.09904630381701   21.41703687476781   16.87684152883106
C         9.94289968203652   20.99347500534386   14.96187793935339
H        10.92749503178038   20.80485650478984   15.36314883182665
C         9.71931604602584   20.89706551919774   13.59834533038109
H        10.53119704885995   20.63275170382894   12.93826717936298
C         8.45740882523941   21.14625283883417   13.08062268108168
H         8.28486400504174   21.07919572556903   12.01746884225580
C         7.41923312583539   21.48501605745521   13.92593513078247
H         6.43276473176170   21.69302455688547   13.53441466928608
C         4.09361599908788   20.67478594762118   18.98473654073677
C         2.81114570163444   20.77333829851291   18.46466599503512
H         2.47609484511064   21.72899295320632   18.08488432867962
C         1.99593773717675   19.65702522782145   18.42468778137932
H         0.99945331552169   19.73001034717785   18.01624203595234
C         2.46083657055026   18.44545101342825   18.90806861446304
H         1.82664703989521   17.57292022625552   18.87469944843377
C         3.73785963670577   18.34791976162327   19.44081669267591
H         4.09275311760804   17.40326178554503   19.82419763650892
C         4.55682895583482   19.45964962349423   19.48181322673599
H         5.55008884173102   19.39418550987471   19.90757366842016
C         5.70085252041268   22.39161179400242   20.68585873285028
C         6.80828146865360   23.19854924856365   20.93072122908668
H         7.35361932745087   23.63797197703024   20.10456069867912
C         7.20530751554760   23.44512455607601   22.23071989128314
H         8.07176188968694   24.06049328170178   22.42110663953475
C         6.48920451132214   22.90445504943968   23.28776664781309
H         6.80175566983214   23.09632063397669   24.30252832145164
C         5.37060954599593   22.12453645297697   23.04451405843160
H         4.80771562027786   21.71349647193544   23.86847016424035
C         4.97143300040941   21.86592246182957   21.74568644239071
H         4.09945878532943   21.25809344718968   21.54949440509799
P         3.84896423688693   25.60233565225676   16.24041903850472
P         4.34673362955248   24.93296478232743   18.91763305482811
C         3.10352963863091   25.85738101789169   17.94633509471070
H         3.03612043345825   26.90727357448308   18.23528924863438
H         2.12928539927724   25.37149775213417   18.04528392224978
C         4.44520729812025   27.27249752899811   15.87638965939144
C         5.76228479431675   27.51782281541596   15.51425788510476
H         6.44648815012808   26.69124046408987   15.38927703350138
C         6.18565717593101   28.81699170132385   15.29445794451943
H         7.21045358227517   29.00513005968709   15.01258404942821
C         5.29721166622974   29.86964439106992   15.42857551526053
H         5.62791150632921   30.88233284917478   15.25528136647784
C         3.97601064856420   29.62510470760704   15.77319607130785
H         3.27892969177247   30.44483663748031   15.86189720003161
C         3.54746202885607   28.33176720225001   15.99915554111520
H         2.51338744702839   28.13714701207416   16.25362708134526
C         2.41113928667151   25.35592338972615   15.16969762837217
C         1.50973495225127   24.34603231718673   15.50044053273499
H         1.66040297732649   23.76821043591489   16.40456512261973
C         0.44014760438252   24.07476785195047   14.66929128503540
H        -0.26220376981053   23.29631986081128   14.92891240182284
C         0.27314935693828   24.79919263773601   13.49910124274701
H        -0.56190856859960   24.58654737346416   12.84925200850009
C         1.18357027756086   25.78525347389444   13.15563171746595
H         1.06072993289034   26.33718532419598   12.23629176247502
C         2.25803724505272   26.06230870625111   13.98211343286266
H         2.98080614567415   26.81679415904297   13.70751252431422
C         5.75824365687445   26.08623665362475   18.80315711634857
C         6.86267820953621   25.71111031287306   18.04758591827211
H         6.89723671043255   24.71401189496625   17.58766934270091
C         7.90949476975363   26.59528014860982   17.85701980106674
H         8.76647900237795   26.30029883488832   17.27004435181665
C         7.84447981591356   27.86390683154580   18.40904761363566
H         8.65646596086868   28.55836271355830   18.25838077689163
C         6.73428983777476   28.25008023717364   19.14485296105616
H         6.68124960631319   29.24508340476801   19.55994220969857
C         5.69001213767257   27.36684700741323   19.34501001648217
H         4.82021225845790   27.66719087330275   19.91393001343054
C         3.79729037680726   24.85439443726596   20.63499486192145
C         2.61448783690085   24.15611847621936   20.86097410872698
H         2.08719764595288   23.72097742533024   20.02161491501218
C         2.13240764553058   24.01491878587622   22.14749654619506
H         1.21243246964758   23.47860071792941   22.32451052644553
C         2.83360472028234   24.56440636761920   23.21001739962118
H         2.45699548788063   24.45736703848289   24.21559812852824
C         4.01801748892857   25.24689076190953   22.98590261565239
H         4.56504628915280   25.66706932218737   23.81614736598083
C         4.50705711387105   25.39310096707391   21.69999485504034
H         5.43719693264500   25.91471411436567   21.52618798477786

