101
CSD_code = DASMIV | q = 0 | S = 0 | Stoichiometry = C47H48BCl2PPdS | MND = 4
Pd        2.31442102806859    0.60249856347692   10.28922981930711
S         0.27166223045664    1.01890785648659    9.18714031871544
P         1.51085150937939   -1.47774370416863   10.38065843984568
Cl        4.22888094615061   -0.09674289014001   11.26078455472595
C        -2.87782906508494   -0.50835405245799   11.17640319290043
H        -3.89696022344121   -0.24589107830146   11.40141667293133
B         2.10615301832844    3.58105332463497    9.26800017727444
Cl        2.71116561216287    2.79733540527358   10.89086837793019
C        -2.37803997314566   -1.70306862455249   11.69149095504197
C        -1.06406196778024   -2.04540727862347   11.40117660039127
H        -0.62489518443397   -2.96113285251834   11.76379559579459
C        -0.26810847503970   -1.18653370030506   10.65791476680300
C         0.50801150288939    3.72423095003388    9.55118890089137
C        -0.03009200045724    4.95963782680995    9.88312356187823
H         0.63447993457112    5.80804141605451    9.84963080887031
C        -1.35501344215512    5.13146787958793   10.26089238723347
C        -2.18662458497207    4.02059081320763   10.24594721475287
H        -3.22002640685306    4.14033854615844   10.51210039297742
C        -2.68297563251640    1.58431370619727    9.70207346443964
C        -2.12560591218791    0.34700241994027   10.38109444792925
C        -0.79451139636076    0.00657437957514   10.16778908588591
C        -0.36943327349098    2.63613313126402    9.58932868075632
C        -1.72674163722345    2.76148096620677    9.87858413082824
C        -2.77855208352708    1.28556683120924    8.18913374759075
H        -1.80939920968622    1.03844344047272    7.76349825536410
H        -3.16422164998726    2.15965192269006    7.66920507104766
H        -3.45226965371483    0.44823005547803    8.01649953573871
C        -4.10125601108024    1.90082566359865   10.18308156678644
H        -4.12145711250086    2.12270317776016   11.24781907441988
H        -4.75729810765894    1.05680284761489    9.98173925519237
H        -4.50064531335480    2.74980098772969    9.63472111372533
C        -3.27909360492302   -2.57896113878269   12.54811551442378
C        -2.56809438031139   -3.84283478811238   13.03961180048985
H        -1.70082112381901   -3.59431900871922   13.64738646717487
H        -2.25267115874159   -4.46654720660131   12.20621963375166
H        -3.25182867264461   -4.42569305593282   13.65287893809052
C        -4.50079144646884   -3.00487090104176   11.72160153459896
H        -5.14309386777525   -3.65299755397778   12.31327564990705
H        -4.18469455314911   -3.55020580092442   10.83466864169406
H        -5.08646223229432   -2.14665754699750   11.40402637912525
C        -3.73247097488840   -1.77713711574321   13.77607331214781
H        -2.86825696932239   -1.44568052948178   14.34770106345829
H        -4.35313906920015   -2.39812739327856   14.41791964644857
H        -4.30956103122666   -0.90183195218065   13.49135472354699
C        -1.84092331905553    6.51856895855314   10.65013256439808
C        -1.00566125621623    7.01985634622482   11.83643714750819
H        -1.34178051821482    8.00912951239317   12.14009744210796
H         0.04732743843105    7.08132259942930   11.57766530031948
H        -1.11074761307539    6.34417993388949   12.68297847627031
C        -1.65784197261701    7.46153178326214    9.45286232109046
H        -2.23238133165792    7.10433591467438    8.60035601752337
H        -0.61441717821434    7.52445926575257    9.15734238570299
H        -2.00308099350410    8.46141788583877    9.70753544557387
C        -3.31650492160611    6.54358890005056   11.05977396926937
H        -3.95896465715898    6.23790444130413   10.23670636206518
H        -3.59564895619454    7.55694638774840   11.34130448560046
H        -3.49739505935244    5.89682219516284   11.91561225860362
C         1.66419004750653   -2.61746374900823    8.98697320687906
C         2.95614869512594   -2.79716379672154    8.49595452345800
H         3.77428544162941   -2.27818139260706    8.98199921450908
C         3.16809827511027   -3.62057273970859    7.40759772091730
H         4.16671763842474   -3.76573938884017    7.02393548435110
C         2.09263497114885   -4.25387622422671    6.80230782424538
H         2.25627075940428   -4.89280659906308    5.94720788704155
C         0.80752782988269   -4.06501149126568    7.28387202595932
H        -0.02608052600936   -4.55641843544789    6.80428704478239
C         0.58576999822437   -3.24464257549352    8.37656066957453
H        -0.41521269820437   -3.08826846692962    8.75453146074632
C         1.96457272262444   -2.39624143884169   11.87094351339390
C         2.28433342715352   -3.74615751794692   11.89556957130790
H         2.29656584429394   -4.31674639306147   10.97703040797344
C         2.59423844002273   -4.34764410290874   13.10429897565541
H         2.84926106087020   -5.39684144121163   13.13045601761275
C         2.58314703428866   -3.60785708630720   14.27453087207996
H         2.83120202904699   -4.08270743758320   15.21211684441578
C         2.26577592927545   -2.25695078338388   14.24800915340164
H         2.26968336609991   -1.68239629664540   15.16211536271859
C         1.95904187628397   -1.64891446899511   13.04795677662961
H         1.73172950005246   -0.58323754444497   12.99733866269556
C         2.82842917088724    4.99911550782881    9.04204299371134
C         3.24591392561606    5.79745517092189   10.10595477647833
H         3.11554979149122    5.43996276444371   11.11842776211869
C         3.82375269494601    7.03776715917790    9.90165879832384
H         4.13649069887039    7.63310923560774   10.74893639403438
C         3.99994270398105    7.51812083877740    8.61586572512171
H         4.44968462500200    8.48748284559476    8.45208053050473
C         3.59630023249470    6.74324673545918    7.54230155081880
H         3.73203742579310    7.10743523024543    6.53296422818071
C         3.02064965766259    5.50390259951952    7.75764199896675
H         2.71283777616207    4.90909511471812    6.90897049890422
C         2.42591909904862    2.49280741994129    8.11015098069598
C         1.58495909126981    2.34549305977055    7.00571467600269
H         0.78320411035507    3.05893360085593    6.86380382026902
C         1.73220940768336    1.29971913596249    6.10629760573883
H         1.05402272229984    1.21130732721269    5.26873909943910
C         2.72651163829717    0.35757953251622    6.29377412344956
H         2.82155395532878   -0.48004371500199    5.61719997008159
C         3.62891215828663    0.51645866944408    7.33815193412864
H         4.46715330158300   -0.16209914982104    7.43651932236705
C         3.49419242150656    1.58024484619206    8.22469999619717
H         4.30106368710352    1.77168737829453    8.93674234515172

