63
CSD_code = DASNIX | q = 0 | S = 0 | Stoichiometry = C19H37BrCuN3P2 | MND = 4
Br        4.78955044473833   22.04581067135847    6.58692561193391
Cu        3.80641780121900   21.61560019304588    8.61992871538891
P         1.55127550922436   21.25794114512132    8.62339553057541
P         4.94802469200868   21.65028374228780   10.57408444737182
N         2.60592727757460   20.50903994813931   11.03848497035673
N         0.64546896951339   20.49571079828468    9.87537275859198
N         4.66221360032776   20.68918294066378   11.97845118370281
C         1.35832413538576   20.05291994388990   10.96544085128328
C         0.83597702141610   19.19500684310582   11.93723362187124
C         1.67371600048867   18.79648584123237   12.96284908756056
C         2.98047036127771   19.24435077838713   13.02355457465117
C         3.40785192083096   20.12703858415549   12.02846637830573
C         0.43393184222165   22.68578697112566    8.14786771272670
C        -0.16783463870854   23.36416625273744    9.37576321412628
C         1.31077597320524   23.67716019338306    7.38290253075965
C         1.24433078004691   20.01272277656102    7.25561676273533
C         2.21240693306228   18.86053412663125    7.52425901720930
C         1.43554791031824   20.55725246045990    5.84567575365318
C         4.81570476742984   23.39795938502271   11.22187288054619
C         3.33591630095440   23.66359682243291   11.48429317911885
C         5.65962076519947   23.74058865472017   12.44377493141786
C         6.78146487825634   21.41075919003119   10.31352336063070
C         6.93214291570455   20.02494108231679    9.68690263935102
C         7.33049111930690   22.48362778921306    9.37883517563587
C        -0.73080297478291   20.07311118591589    9.71902690726587
C         5.59091630602622   20.40087448017038   13.05047247356655
H        -0.17793812194689   18.83768693174088   11.89498714637895
H         1.30499385544886   18.12055472467420   13.72088617276043
H         3.63371011395636   18.91210084315045   13.81125314050030
H        -0.36907804367014   22.33022750741132    7.49035563751166
H        -0.89444625938271   22.73134116412023    9.87828641881111
H         0.61117489960268   23.61957770873926   10.09209512365109
H        -0.66822913427971   24.28475945099238    9.07764325523260
H         1.83353804197152   23.19873517831134    6.55758670357146
H         0.71073575628437   24.49176510115919    6.98047740616379
H         2.06055688277056   24.10381170836428    8.04934611706709
H         0.21352486035674   19.64913595058196    7.35564130526510
H         2.12772854789882   18.50756924200452    8.55367409684724
H         2.01627549617287   18.02442897084458    6.85511223489189
H         3.23789319915274   19.19040820452430    7.36042823735465
H         0.70778063069973   21.33107902970506    5.61198476294144
H         2.43554030563180   20.96074962031022    5.70884688576032
H         1.30634223749543   19.74805174869736    5.12797231242567
H         5.13376190262374   24.01948597582019   10.37413728853370
H         2.74853138488062   23.37884219613591   10.61010237124291
H         2.98508477743766   23.07178459688719   12.32890852239111
H         3.15951446852962   24.71664351634655   11.70049735215507
H         6.71540717996649   23.54081504285417   12.27389702562144
H         5.55288783550229   24.80040701862472   12.67385598518290
H         5.32629717005194   23.17587211615142   13.31161971705512
H         7.33736174260757   21.44637394247446   11.25604223636497
H         6.47175105453089   19.25886940901850   10.31181601494636
H         6.44911719699488   20.00760075458842    8.71036299826765
H         7.98223440420576   19.77402011973026    9.54858182930141
H         7.35130431352614   23.46095251390678    9.85621711649419
H         8.34764773263040   22.22893122412896    9.08600762622083
H         6.73555262820584   22.55249592467369    8.47104411334475
H        -1.15891748659898   20.55778713665595    8.84417725839026
H        -0.81157695756764   18.98834926484464    9.59422642674643
H        -1.31583030177527   20.36548196518787   10.59506184430165
H         6.47894364874390   21.01680053221818   12.95173170340588
H         5.13085569535474   20.62284534945648   14.01739266267300
H         5.89473772977155   19.34920551459230   13.04196867988379

