123
CSD_code = DASNUI | q = 0 | S = 0 | Stoichiometry = C44H71LaO7 | MND = 7
La       12.49669446137331    6.59549519360281    2.79877276212733
C         7.01888843840285    5.63227834705337    2.99646820729767
H         6.06885235139899    5.95602901274466    2.57638211590455
H         6.81690970959259    5.00099591791234    3.86073671932770
H         7.53561218153372    5.04084606483272    2.24373811725869
O        12.77092321252620    7.05229294971478    4.92112333529047
O        13.56530487536093    5.94380800104449    1.03518904682895
O        10.43417699267632    6.74435075099215    2.25727977710213
C        11.90047382191678    6.30374490855610    7.01032898675978
C        14.33457327423411    6.04608426562578   -1.20953899260124
C        14.29545513166572    6.51668206639267    6.67683652925633
C        13.47718682835403    5.51361068411568   -0.21081729272556
O        11.54474114500543    4.24806478850571    3.89877608973958
O        14.25537552318203    4.57677452071282    3.56624279344288
C        12.14236880391693    5.86546959995672    8.29902732249322
H        11.30872698798866    5.62835911958231    8.94442745684479
C        13.42967418840822    5.73463073961629    8.78757006541012
H        13.60079260034786    5.38924231461506    9.79656499048886
C        14.49301347014656    6.07848454474512    7.97373154336191
H        15.49867892247121    6.00894332092654    8.36390456368278
C        10.48673664484830    6.51544376450602    6.52340303340530
H        10.53384326366990    6.62423068992135    5.42997881458599
C        12.98011717992066    6.62831312017937    6.14779227911888
O        12.03977512882334    9.29845322374313    3.14700270933661
C         7.64180305474084    9.18189227685699    0.41296998909071
H         6.90174324797239    9.79764887065144   -0.07646203294474
C        14.28443717261577    5.57047819939170   -2.50571005570962
H        14.95583510028358    5.97667670382742   -3.24848183389375
C        15.97881920162379    8.30507923052597    6.29692325015938
H        16.32070676985198    8.23470488116483    7.32783190712679
H        15.18697834167348    9.05027747769457    6.25504324362386
H        16.81374936951432    8.64696588206248    5.68552800563409
C        15.46425153947560    6.94290270210309    5.81874447718252
H        15.08012608270361    7.03783317548372    4.79711401352315
C        11.26769105429620    7.68486077349988   -1.45163736572415
H        10.84201067615961    6.68572529318950   -1.42444548715331
H        12.27225386237842    7.60736776037109   -1.85914704714593
H        10.66520596673873    8.29652209222828   -2.12062628021189
C         8.93658988459715    9.12727176544596   -0.06518923115918
H         9.19899941271705    9.71213863678154   -0.93491862694005
C         9.90205753525563    8.33579435223780    0.53439270411882
C        15.00330487945460    3.80949510609541    2.63580012968868
H        15.94916432348645    3.48202712369184    3.08512607798209
H        15.19681658112630    4.45681856407087    1.78275606914487
H        14.44947430892088    2.93264554498851    2.28950183292784
C        12.39413459134118    3.20077003898658    4.33076881566101
H        12.47381671345117    2.43848755590027    3.53944800273718
H        11.98873011733297    2.72410761162272    5.23553135515142
C        14.40213879628938    9.67501136646860    2.94075508749823
H        14.26223589173534   10.15916558257030    1.96257644877839
H        15.25547350022607   10.14009013465177    3.45296642180856
C        13.16100430905803    9.87014080849710    3.80161294206973
H        13.30620458380949    9.37953421320084    4.77383714437878
H        12.99530935045978   10.94795680539790    3.95349222488015
C         7.86059368730521    6.84823816255296    3.39484116201486
H         8.79257687237906    6.50098068174936    3.85385152359049
C        12.57103306304250    4.49920537592357   -0.60176294069326
C        13.38462707791026    4.58755863787296   -2.87420490894570
H        13.34750625100490    4.23113448437710   -3.89297029396657
C        15.32408729342898    7.11690826607260   -0.81484113672245
H        14.96501858985176    7.52390878938705    0.13534097328232
C         7.30871059913025    8.43694401756500    1.52849012649997
H         6.29759791367554    8.47630618875883    1.90646001073138
C        12.53704554705806    4.06626419357490   -1.91687057897544
H        11.83391116622618    3.29684377400857   -2.20445270213200
C        10.83769419585586    9.65391341629394    3.81438987966621
H        10.81986866649849    9.24183354894479    4.82670894465154
H        10.01246714076183    9.24446390880590    3.23448889040624
H        10.74017456865170   10.74603156338801    3.86361421633373
C         9.57123332388545    7.55409072559733    1.67009256041531
C        13.76252797433265    3.80527404225607    4.64937554656222
H        13.65418378781595    4.49493317002769    5.49296717797503
H        14.46985665232887    3.00983151483443    4.91630228447277
C         8.24361285186956    7.64510704994552    2.16866817930754
C        11.64723032750806    3.86506084839960    0.41407581284292
H        11.87458786364309    4.31703594794044    1.39596821643547
C        15.41847648214062    8.25934178675291   -1.82692890668102
H        15.89962413551331    7.93187915811853   -2.74541199900784
H        16.00994163080464    9.07678836139394   -1.41508020859273
H        14.43051576071518    8.63961036420769   -2.07656316106240
O        14.63756366560489    8.28946545459534    2.75930340677853
C        10.22310706545364    3.78758188159966    3.67059798260864
H        10.21836367802412    2.92933025773843    2.99025253776274
H         9.68211292665625    4.61572981935552    3.21880228947288
H         9.74637716991654    3.49135689230102    4.61091762774002
C        16.60843847477186    5.92851445708782    5.81170176695209
H        17.37099248394472    6.22781805206945    5.09394197433383
H        16.24517231759295    4.94250944930474    5.53573089860234
H        17.07759933608809    5.85969934111330    6.79050958595529
C        16.00214477000368    8.02041081750267    2.48538110999390
H        16.34352532961662    8.57196255016918    1.60335918744109
H        16.08256374172114    6.95151564190832    2.30286057199274
H        16.63147200334694    8.29816513085190    3.33853838323333
C        11.29577223042392    8.30169453650733   -0.05060404253531
H        11.93229633080289    7.67261745314353    0.60518727362249
C        11.92002774793753    9.69936915617154   -0.10284723643540
H        11.39569649369778   10.32924468061376   -0.81852988545310
H        12.96153645502238    9.62984882370379   -0.41132687553288
H        11.87027865972687   10.17273202636020    0.87458748716429
C         9.93273560985917    7.80903885562102    7.12962477494385
H         9.84715340767953    7.70718606187277    8.21022970045950
H         8.95067921503669    8.03916855323980    6.72334318058169
H        10.60147703455017    8.64352633702171    6.92770347342218
C        11.89791734471197    2.35424051963049    0.48404150595210
H        11.60527256187328    1.87831039270519   -0.44886486712000
H        11.32056139258686    1.89387545238478    1.28564950362771
H        12.95408350017208    2.14612560996222    0.64726418763291
C        16.70656939430721    6.48974911617732   -0.60713945168393
H        16.66329697322684    5.71091639621432    0.15135009485063
H        17.43483691934584    7.23811206373693   -0.29721136414171
H        17.05207456084382    6.03802695098922   -1.53503346317950
C        10.17784808232967    4.14694407617562    0.08375999436239
H         9.95044501435463    5.19828264682894    0.24174443264429
H         9.51911810176396    3.55565982718092    0.71812258267039
H         9.96256576674680    3.89684670619214   -0.95310718673185
C         9.56388663182170    5.34565864813965    6.86791811323149
H        10.05272811342843    4.39775951286526    6.65546556392928
H         8.64433150255387    5.40634371756171    6.28957050012428
H         9.29817663269703    5.35857826720868    7.92291860044939
C         7.11226730226910    7.69547093820102    4.42498764860299
H         6.13065136119332    7.98497129029729    4.05806819034532
H         7.67225883326550    8.59986289844092    4.65451641584892
H         6.97025908239078    7.12897232075690    5.34374200121791

