101
CSD_code = DASNAO | q = 0 | S = 0 | Stoichiometry = C47H48BI2PPtS | MND = 4
Pt       12.00088170529147    3.45921274720166   17.22153993632478
I        13.32315478303976    1.59740645673861   18.59712706809554
S        10.14245770979717    2.10562354025606   17.66169072472023
P        10.60764440247032    4.51943167289089   15.80298032955652
C         6.39819088734416    3.46137712465493   17.22439899856760
H         5.40952736506314    3.19042887457398   17.55143856579351
B        12.00061863820753    2.71712291517231   20.31393531776655
I        14.04602309714752    4.67796241205540   16.14210402209597
C         6.54454141785330    4.61031029245193   16.44978443437201
C         7.81783421211410    4.95617721019256   16.01805960145738
H         7.98513645452201    5.83390448998809   15.41631081849337
C         8.91235665550150    4.18526694592660   16.37737513455186
C        10.56280768243473    2.00735976912588   20.40418158660655
C        10.09521948298882    1.69344320127365   21.67701219449348
H        10.78701543963447    1.80579746303358   22.49545371118842
C         8.80146339289241    1.26638482131409   21.93159580567683
C         7.92309638563624    1.18062823237537   20.86105211861090
H         6.90844536668214    0.87985137361453   21.04169486946826
C         7.33669647672804    1.37690005437746   18.39702780728249
C         8.32132468834859    1.46368639400077   19.56132796218595
C         9.64600660027285    1.85383190873507   19.36237846255232
C         8.73410012967770    3.06020410347857   17.17408712949190
C         7.46931121638061    2.65595779554627   17.58706284840454
C         7.68559712453498    0.16563510200749   17.50623963811557
H         8.69521899096324    0.21079044902549   17.10846752372792
H         6.99204558549756    0.11226835508297   16.66870737400752
H         7.59840734713246   -0.74828620091526   18.08966407918225
C         5.89452658303564    1.16295067264958   18.86626836044040
H         5.56200276232703    1.96495706541838   19.52189051677263
H         5.80913806495605    0.21590666337572   19.39293167424580
H         5.23165742746048    1.10801671270106   18.00510768674991
C         5.31303386918716    5.42890776147294   16.09533722390415
C         5.65043834285189    6.65122356078318   15.23701701160599
H         6.32760730455774    7.32439738855244   15.75812200760439
H         4.73710023942442    7.19965884632869   15.01732378066704
H         6.09823370956922    6.35610242620442   14.29062192759447
C         4.33679810932549    4.54441418695515   15.30621922762550
H         4.00022468682194    3.69547895938766   15.89489508664820
H         4.81399418139303    4.16752719607874   14.40375302743691
H         3.46242377384969    5.12270802396661   15.01712351584635
C         4.64652699353880    5.91847609655215   17.38853573916656
H         5.34374270144922    6.52085319460902   17.96715201366108
H         4.31659560258695    5.08885345061705   18.00780076737000
H         3.77869922378880    6.52933863728816   17.15111913439639
C         8.39851774375337    0.93846002641206   23.35967622596792
C         9.31113973682652   -0.17701818523292   23.88783341113849
H         9.03259086065238   -0.43675592818414   24.90687560168784
H        10.35281872502892    0.13144886313847   23.88747670282018
H         9.21825666464921   -1.06613772887113   23.26720991132493
C         8.56668448276973    2.19768320785756   24.22179979394650
H         8.27344745068539    1.98968671222189   25.24852954638649
H         7.94148004581421    3.00308550139105   23.84061193368039
H         9.59801451889861    2.53956993842547   24.22420585549013
C         6.94644125393387    0.46609928450212   23.47674683569991
H         6.72446930744633    0.23664033648340   24.51685638787156
H         6.77877562996643   -0.43624587190371   22.89250356660799
H         6.25311059042051    1.23896034997324   23.15142835765486
C        10.62671680429852    6.25618544769914   15.29799476369016
C        11.25669843981907    7.19956720859360   16.09887728074559
H        11.76547049167857    6.88100527093352   16.99730208385630
C        11.24115712433583    8.53380627725847   15.73374541820874
H        11.73982001800917    9.26438885888256   16.35204855855409
C        10.59515398249072    8.92778908763170   14.57405311231379
H        10.58420231791818    9.96890084711313   14.28808858120832
C         9.97013929801165    7.98644071211176   13.77030456421663
H         9.47392252571808    8.29383179539998   12.86143857452653
C         9.98658597629097    6.65057790730358   14.12418884214187
H         9.51861890406788    5.91118229951428   13.48734601757025
C        10.69129420417621    3.61212992124109   14.22976253673736
C        11.64625780586775    3.99738921887448   13.29010256460368
H        12.27171530648890    4.85803938621417   13.48185363653035
C        11.79827105379267    3.27265753595783   12.12377178439694
H        12.54324509633058    3.57272884948919   11.40279336301373
C        11.00554358373334    2.16066563519841   11.88686523688266
H        11.12890924764048    1.59271422905395   10.97707158712859
C        10.05815333386762    1.77302830670886   12.81974098631553
H         9.44159221426384    0.90483819110696   12.63866755746726
C         9.90138795665145    2.49108410758511   13.99141250760871
H         9.15908006637373    2.18197958426619   14.71550997336612
C        12.83927149069349    2.58915632404264   21.67305362231435
C        13.42799550125154    1.39208441573721   22.08122168152940
H        13.37806576932705    0.52795143769392   21.43107298894666
C        14.07858254190429    1.27572653573177   23.29524528683677
H        14.52642290082664    0.33299683783708   23.57687798338545
C        14.15695506918418    2.36357596857779   24.14791021354002
H        14.66719361648965    2.27843441436064   25.09679131224558
C        13.57500769802971    3.56105778643251   23.77153739602348
H        13.62624460270140    4.41831370969170   24.42870308710470
C        12.92595840811238    3.66719548476047   22.55419832550899
H        12.46861799235097    4.61018688550211   22.28584675849939
C        11.89550487289511    4.24909000156373   19.80544280158454
C        10.67308804084479    4.92961953592325   19.69632043146856
H         9.74259257002315    4.38988576357533   19.83276980532229
C        10.61643672173842    6.29972332041942   19.49548530734841
H         9.65440752809956    6.79023517636594   19.42535462587454
C        11.78264644412300    7.03948199183326   19.40267806303448
H        11.73750476035694    8.11165696256424   19.27296984328243
C        13.00685603159437    6.39462217733062   19.48478002061427
H        13.92465540891607    6.95835403992254   19.40340615868165
C        13.05905413638347    5.02617110914783   19.67799809301101
H        14.02628831719179    4.54982458940525   19.78282576791628

