123
CSD_code = DASQOF | q = 0 | S = 0 | Stoichiometry = C44H71O7Y | MND = 6
Y        13.81957343761815    5.51471189753039   13.31583144123632
O        11.87543947228688    5.10303280557552   13.18898907188897
O        15.05300520326046    3.96835499604045   13.25090853380653
O        14.47631973093014    6.52388029515167   14.92736128561345
O        13.26900655997727    8.15884909633892   12.76989424430349
O        15.63210599546586    6.21321187206449   11.68519631917185
O        13.18242288786624    5.90805955650604   10.76102929637625
O        15.71933905591210    9.62088010302327   12.46571999115164
C        10.80661163512187    4.69816474975678   13.86910110538361
C        10.68426295588127    3.35737198226909   14.30628279198463
C         9.53762661153581    2.95651853508665   14.96983369684881
H         9.44142368494370    1.93285317009552   15.29849096667116
C         8.50351571025345    3.84193314623758   15.21623806023338
H         7.61618931285806    3.51069286797430   15.73571536990803
C         8.60838310769329    5.14955487726867   14.77960186736875
H         7.79050972197697    5.83242148554236   14.95779764259762
C         9.73947054325552    5.59394265480004   14.11797632250857
C        11.79676903960635    2.38902627105436   13.97778007120434
H        12.74272809204074    2.95727408091598   13.97517327320411
C        11.58430439792807    1.83306736942282   12.56548620817225
H        10.63510030676479    1.30151468235010   12.51054391833684
H        12.39005217021410    1.14657229111060   12.31393896945821
H        11.57096825366776    2.64458062102425   11.84072948819468
C        11.93972065540845    1.23552539866594   14.96723361075558
H        11.95716490153490    1.60130311807991   15.99018444038947
H        12.87002939381796    0.70675654359921   14.77004130467225
H        11.11980575594448    0.52793946404067   14.86190212370394
C         9.84432490140741    7.00429567377369   13.58457352468729
H        10.91259688296197    7.19301892725830   13.42666245463848
C         9.11710836863499    7.09017319847839   12.23783975061377
H         9.52180557883639    6.36272973635118   11.53836586739786
H         9.21381746324995    8.08513626613089   11.80482271459357
H         8.05857819130653    6.87578211439004   12.37386735516808
C         9.29486102397530    8.06964460825092   14.53276296763337
H         8.21551130132269    7.98465561655360   14.63476645925309
H         9.51233856792457    9.06317197150680   14.14144163500153
H         9.74295074871803    7.98315101607089   15.51867178975984
C        15.17955063964293    2.64847768555792   13.24735032474528
C        15.09899031683812    1.91753567713062   12.03874462111666
C        15.26965789497888    0.54444250225286   12.05264865975597
H        15.21462708846705   -0.01415714767529   11.12978693124142
C        15.51678916929376   -0.13110694354288   13.23360983664426
H        15.64195969686174   -1.20422121849116   13.22968283407457
C        15.62317190749106    0.57781218352758   14.41793837440177
H        15.84138055120269    0.04362438352028   15.33019886607985
C        15.45875535839033    1.95055541446775   14.44775782567678
C        14.91556105966386    2.69699922605498   10.75742510289883
H        14.35254374593820    3.60386183069319   11.02657298101804
C        16.29904028501508    3.11671064882059   10.24631978876088
H        16.79930542318804    3.72026035435843   10.99882140100450
H        16.22321033971976    3.69094624239174    9.32253508324823
H        16.90589610403872    2.23392277559457   10.05155445970647
C        14.15785253433178    1.94366898696198    9.66586250776142
H        14.74267790550094    1.10477283050186    9.29558878325537
H        13.96063412510619    2.60262181543259    8.81958101402250
H        13.20883416386443    1.56698389457942   10.03914461593364
C        15.62613582200738    2.76635556695709   15.70710100052942
H        14.89296910938372    3.58425530713437   15.66621277281881
C        17.02018439046767    3.40258777433165   15.70745798011212
H        17.78864238611374    2.63088065553562   15.72391918366135
H        17.14111536271560    4.04622279315973   16.57612378445134
H        17.14582947515763    4.00141754360896   14.80791856849119
C        15.40928198345358    1.98579949825410   16.99940534976029
H        14.47193975841278    1.43463821781219   16.96925710138177
H        15.38327033833713    2.67985046818312   17.83742177060164
H        16.22192492667928    1.28287131477864   17.17126991706835
C        14.91849043640402    6.31342812733182   16.16350521464646
C        16.16733595448409    6.83806719068457   16.56936404420609
C        16.62033467043806    6.62260387718873   17.85957723726456
H        17.57665926608315    7.02586314456492   18.16120341419928
C        15.86977311270163    5.90690263878467   18.77217685117535
H        16.24111347054697    5.73727620449826   19.77237838111054
C        14.62329401670950    5.43364856772243   18.40127306773434
H        14.02449056574183    4.91042851128655   19.13101118264913
C        14.13127556713850    5.63100643408005   17.12354835211513
C        16.96589757433442    7.68723023785670   15.60760347554050
H        16.45467862150342    7.64342504468139   14.64134124055441
C        18.39618387349903    7.17559554680485   15.43119747160315
H        18.96424309229811    7.29086182825047   16.35129274490355
H        18.90486863913981    7.73417937577538   14.64655146998119
H        18.39601269075813    6.12199036974122   15.16398370784667
C        16.98081406590015    9.14549399118131   16.07627164379415
H        15.96502223058267    9.51432988160058   16.20551895453570
H        17.49256195860719    9.77308812387514   15.34789507572191
H        17.49760807033592    9.23559254239007   17.02929931960821
C        12.73542927524415    5.20961336443215   16.72791646406161
H        12.77219560469806    4.86886607658415   15.67390188567510
C        11.81657190372173    6.43536527232997   16.78890002914406
H        10.80117761353849    6.14892416875189   16.52357071863905
H        12.16505479120015    7.19797098664456   16.09370567380690
H        11.81704297775306    6.85174172239024   17.79574317784007
C        12.14697926884543    4.08429366826892   17.57306063119125
H        12.83520522539935    3.24565863926417   17.63637282451326
H        11.21653641144879    3.74450158568867   17.12195653086081
H        11.92417348061179    4.43333791404710   18.57945972311147
C        16.67533526448901   10.56333184732029   12.05388621466570
H        16.24229933000533   11.29424313875518   11.35890538868603
H        17.46811118131082   10.01294953167598   11.55048744958090
H        17.09388505190119   11.10351918385955   12.91127795085444
C        14.62525590869545   10.20660512320647   13.13488641726644
H        14.06922375871010   10.85753086576470   12.44035554298204
H        14.97860619297904   10.83155948201307   13.96825634655040
C        13.72871293860022    9.10998204328918   13.71441222836090
H        14.29313765501839    8.52479305221220   14.44377607039255
H        12.87297762716189    9.59324109352947   14.21004800584682
C        12.39691786344786    8.72597731096403   11.80687396334845
H        11.63935824506748    9.35301065405346   12.29093920467713
H        11.90776608342618    7.90162782288887   11.29598811206353
H        12.94402737871649    9.33330694675986   11.07619553337301
C        16.93475453817614    6.49458947492391   12.16569558287427
H        17.68525444413200    6.25302383756271   11.40150556323535
H        17.08298296215207    5.86009848076263   13.03773722260737
H        17.02663326239141    7.54771933972346   12.44589057175491
C        15.31752485205806    6.96702346936758   10.52813210549501
H        16.18487565989214    7.00496274314327    9.85292512748064
H        15.04726913552851    7.98930639514824   10.81940280203000
C        14.16392529079096    6.26967980463238    9.80925904515229
H        13.73188055937947    6.94239750622823    9.05161658696660
H        14.53489393945374    5.36613443079580    9.30400085723479
C        12.06796662092557    5.28053187792744   10.15196750820871
H        11.57486703783388    5.96287018906706    9.44728996828669
H        11.38944393328469    5.02072198669809   10.96290947592362
H        12.36601537049704    4.37313398886372    9.61573127190206

