92
CSD_code = DASYAY | q = 0 | S = 0 | Stoichiometry = C41H39N7NiO4 | MND = 6
Ni        9.22516087555462    7.84391686008411    6.64283037868079
O         9.07869016658793    5.98153385749900    6.70469384907731
O         9.32020140387726    9.76272331933315    6.44213536991865
O         5.63146156870511   22.09586953492536    1.54337207220387
O         7.46232149026158   22.50415949908725    2.59650340992316
N         7.25313079185767    1.61917967863596    6.50464606716061
N         7.63536315196657    8.03471607274079    5.74353629149014
N         7.36832845173053    9.30818672108343    5.36115770021704
N         6.58727066665057   21.75032678837719    2.21275863238621
N        10.87670650505559    7.76381207050153    7.58182067283841
N         7.84379331442949    8.08743133307523    8.67574238262978
N        10.32615247741539    7.76674475895940    4.42561833234772
C         5.13268831743108    1.07184896500522    7.68997038085234
H         4.27047293529731    0.41086454743126    7.64447475427500
H         4.78880364621139    2.10136539847418    7.63782715649710
H         5.63187575053885    0.92745052712181    8.64443945908998
C         6.08394803717453    0.76715408954223    6.53022167060366
H         6.42844570528284   -0.26604041615820    6.61242441614565
H         5.54262414747450    0.85135074203055    5.58160226222548
C         8.65441321030021    1.03399707855688    8.48658678767501
H         9.64363343914794    0.66992119664193    8.75302255783781
H         7.91455673744999    0.38536075068147    8.94895078627826
H         8.53160547148419    2.03825611741473    8.88332886424841
C         8.49270001807583    1.03952292683350    6.96413056233848
H         8.53993180782637    0.00944109608745    6.59502614092382
H         9.32049668175402    1.58518255836906    6.50621606730432
C         7.13772959104721    2.97269264288651    6.28741760864817
C         5.97029470026637    3.50688565521122    5.68669694084384
H         5.15552597497210    2.86344146623145    5.40105580857671
C         5.86700907819565    4.84427537784013    5.43222484820779
H         4.96968917406611    5.22847833858419    4.96605105875946
C         6.88979769874105    5.75153751552353    5.75209032911097
C         8.08043037472272    5.24362586444780    6.36369835657336
C         8.15586651136529    3.85927500667568    6.61017320310093
H         9.06596893576866    3.53018538509465    7.08462031616608
C         6.75071915554446    7.12544442228612    5.45921552809351
H         5.84795214834892    7.45670534173139    4.94919533549563
C         8.30595647405331   10.13734829564506    5.75446228934912
C         8.17188945723264   11.55024266569236    5.37793267448750
C         7.08573377105473   11.99900815986114    4.62522992479612
H         6.33598605943849   11.28180446942152    4.33119742290422
C         6.98162618667034   13.32396208904864    4.27107574056166
H         6.13187114442743   13.64687565433661    3.68947086270054
C         7.95888483591610   14.25367177020459    4.65441182198751
C         9.04569858280603   13.78905797940986    5.40807629026515
H         9.81166593804143   14.48883912234845    5.71351415777794
C         9.15220670874749   12.46422453818471    5.76349061752253
H         9.99030112492034   12.10755197026211    6.34387568269156
C         7.90298712087905   15.65611762620937    4.31669463806155
H         8.73570033126724   16.23589073104038    4.69342673806297
C         6.94246597710195   16.27393033743638    3.60362199168902
H         6.11141962086642   15.69520929473477    3.22406164306373
C         6.89301752860659   17.67763713199374    3.27252251205464
C         5.81679060033687   18.14720298959293    2.50181108398903
H         5.05875794621932   17.44896480133468    2.17846299445754
C         5.70981455874295   19.47233053569389    2.15191170204793
H         4.88399875857703   19.83549712484538    1.55947675601788
C         6.68900894476453   20.37012557992102    2.57079533977539
C         7.76706003004863   19.93207105288562    3.33701691402794
H         8.51130987440242   20.64890779182557    3.64902917616427
C         7.86439870172820   18.60450206041489    3.68090713213963
H         8.70323333186239   18.27975413951186    4.27515832649475
C        11.88645107568692    7.04221312346339    7.10294419836241
H        11.68722616085133    6.48579649999343    6.19710304426480
C        13.12702398698625    6.99512655089208    7.71746353775838
H        13.91790844259190    6.39769710509051    7.29104217546288
C        13.33054752684063    7.72401669084054    8.87799209643815
H        14.28623664470196    7.71072319232090    9.38121101886582
C        12.27438239669979    8.46925613864763    9.37697012429610
H        12.38230695397708    9.04999399618928   10.27991299149176
C        11.06624728734686    8.46052127443695    8.69916888914852
H        10.21898785546958    9.02710952389263    9.06194468074232
C         7.03075184532178    9.13897109852676    8.59452044686548
H         7.50398783181851   10.09284916250444    8.39695799178028
C         5.65598290276591    9.05352632185590    8.73957358198488
H         5.04407724745499    9.93720795480520    8.64495731043786
C         5.09229258361956    7.81447921821006    8.99774914697141
H         4.02214611150009    7.70430064030925    9.09811924016465
C         5.93447181169104    6.72304982407027    9.13823843140212
H         5.54397918708165    5.74193848097897    9.36008473868029
C         7.29700165271645    6.91148142072340    8.97842142454965
H         7.98765299169029    6.08621143195995    9.08990066311686
C        10.76962544665336    8.97534471071904    4.08918893288897
H        11.43645469392901    9.44834634798775    4.79881510754909
C        10.40439854465655    9.62300084474613    2.92040470700291
H        10.77202257724571   10.61550075844742    2.70916806060420
C         9.55169379513342    8.97465476392174    2.04199671955084
H         9.23105330728939    9.45429820856105    1.12848250131564
C         9.12719773790461    7.69401462489191    2.35802617686089
H         8.47796557431168    7.14232055936956    1.69578004054980
C         9.54220344553096    7.13471493578820    3.55511026607864
H         9.22937865836733    6.13718359554600    3.83874096197779

