49
CSD_code = DATCAC | q = 0 | S = 0 | Stoichiometry = C26H15O6PW | MND = 6
W         2.45717324789131   -0.19506937531554    2.52030099423925
P         3.16283019362494   -2.47917683859204    1.95017436105894
C         4.91410405664916   -2.93013890198577    1.36310062754881
C         5.15829119064444   -3.73093173462778    2.57657742229541
C         3.96735198643111   -3.52089955555076    3.23024687620368
O         5.57388067003462   -2.61822663668863    0.41543576059096
C         6.33848300583086   -4.51914007721797    2.87337323215159
C         6.24293489618633   -5.71204993635885    3.59479064200735
C         7.37207437732655   -6.46776412281587    3.84061315292895
C         8.60809122294677   -6.04739897943100    3.37378499194883
C         8.70897686077725   -4.87342523707719    2.64461192823533
C         7.58310579819874   -4.11539503767913    2.38609130383202
C         3.44108177158422   -3.78991932726808    4.53832714359867
C         2.05656473707986   -3.68456646635916    4.71393364980514
C         1.49140064654395   -3.86653075718580    5.95866571883640
C         2.30211402977651   -4.13588334303527    7.05135810438459
C         3.67722016302883   -4.22482025682865    6.89248207755015
C         4.24971190914012   -4.05783938415744    5.64755668304203
C         2.12339449631904   -3.63462610788407    1.00969847468762
C         0.99558386039146   -3.13046881522356    0.36885824948795
C         0.18716468258592   -3.97056270078640   -0.37550473961267
C         0.49824918489759   -5.31606067182414   -0.48055238930171
C         1.62067985905876   -5.82226693614774    0.15741182795663
C         2.43514501151542   -4.98864444816521    0.89945091791265
C         2.90084766046082   -0.55274995871477    4.43484758715347
O         3.17842139847771   -0.72001745513282    5.52990734123257
C         4.35741018782073    0.37129940883488    2.22860092149213
O         5.44657800792156    0.67944196531307    2.10125977055027
C         2.06255649322529    0.21429602079219    0.59837055003188
O         1.85941403794050    0.49534324899037   -0.48758337620553
C         0.58540719765212   -0.80043816227795    2.86809574730651
O        -0.47223648915000   -1.15475385806102    3.11534080690521
C         1.93186667353266    1.65605146819678    3.01002166926915
O         1.63247427656068    2.72002696307000    3.29694761035243
H         5.27653716949111   -6.04848396758956    3.94238144212939
H         7.28898407965425   -7.39030130679061    4.39623997101986
H         9.48938936075697   -6.63887812852858    3.57229181212426
H         9.66950943699440   -4.54968020063623    2.27257467837898
H         7.65796060169020   -3.20369359602997    1.81384572505865
H         1.43711411394391   -3.46662649314108    3.85081738780308
H         0.42206726013399   -3.78544818137631    6.08301611125984
H         1.86331051565064   -4.26574566495534    8.02916866284032
H         4.30640232468823   -4.41914950816532    7.74824736990006
H         5.32168035004669   -4.10247448713485    5.52828658698390
H         0.75720482200649   -2.07766127334348    0.45981419446478
H        -0.68635533337925   -3.57536772725649   -0.87222776477431
H        -0.13342183929873   -5.97272176554889   -1.05977932008453
H         1.86242477934151   -6.87158761570613    0.07361685725831
H         3.31144505537590   -5.38597407664041    1.39351064613522

