44
CSD_code = DATCXO | q = 0 | S = 0 | Stoichiometry = C12H19CoN6O2S4 | MND = 6
Co       -1.58095681046532    3.47742001779709    1.51140616965243
S        -1.41575664259836    5.20548697977374    3.00850259967091
S        -1.11983485144138    4.81122225616289    5.90465946299310
S         0.75298597774240    3.51617328949508    1.10292815552138
S         1.98173631439409    5.04836881507609   -1.07883509309834
O        -1.88203483945826    1.63475028960643   -0.80249089343213
O        -4.12622912908167    3.01487686204137    2.32348004356011
N        -1.33996579015112    2.82596588951591    4.21043493623755
N        -1.48038755482830    2.38129022292315    2.97067545831201
N        -1.72334540755610    1.84488795718065    0.56249599058902
N        -0.60204638244897    5.01056833196898   -0.66322688809569
N        -1.67448574167362    4.60300948494516    0.03846833503969
N        -3.42381953926383    3.66403753789294    1.52152363194442
C        -1.30217211690371    4.12360544729252    4.32810479120449
C        -1.57809285306373    1.10213723853411    2.72323404875515
C        -1.53142977605822    0.05123677508284    3.78009132793887
C        -1.73487338563709    0.79945169042651    1.33230333708393
C        -1.88610566326557   -0.59679841011873    0.83726881850846
C        -1.06218599383872    3.30912230524718    6.92421642711129
C         0.53973674444890    4.56872180419076   -0.23653918809200
C        -2.87437745534180    5.04259679428834   -0.23385628743967
C        -3.16802447692632    6.02088010727025   -1.31989123121787
C        -3.88173669823398    4.48328753859960    0.60430968474589
C        -5.34196144819387    4.77727688961723    0.46615728127557
C         1.29454382431933    6.19208522128908   -2.31195995467649
H        -1.65219905043249    2.46795344214694   -1.23973278175243
H        -1.35403126702029    0.52338867431971    4.74185469035603
H        -0.73726715370340   -0.66481421949600    3.57533770687283
H        -2.47792877624222   -0.48614721280355    3.81565071147591
H        -2.78073196875709   -1.04240523442876    1.26837593476989
H        -1.02837734035246   -1.19412251741072    1.14101971364682
H        -1.96736905553151   -0.60439582030664   -0.24554122420149
H        -1.98128780605403    2.75138479637358    6.78098549009455
H        -0.20353625787852    2.71466386268956    6.63120026060356
H        -0.96783609499994    3.63990844311645    7.95306878400278
H        -3.59610746859639    6.92706391568983   -0.89466037724091
H        -3.88964394387503    5.60423401551862   -2.02067069478584
H        -2.24888973373626    6.26918702363314   -1.84309782846001
H        -5.70635202692363    4.47731865897872   -0.51539616960107
H        -5.87997107333045    4.22276182929095    1.23147278177942
H        -5.53143305474833    5.84156939980960    0.59533320698267
H         0.62834712631710    5.64921419136910   -2.97392412101525
H         2.13932431973871    6.59231367713103   -2.86224269384198
H         0.76021032165108    6.98356173827729   -1.79759435377974

