66
CSD_code = DATMAP | q = 1 | S = 0 | Stoichiometry = C25H36ClIrN3(1+) | MND = 8
Ir        2.26291708924104    1.35674693612122   18.98656782065495
N         3.31850692104208    0.41396329881850   16.21911801372814
N         4.49891035013767    1.97662436029958   17.10847776818532
C         3.40900598623812    1.19981371455293   17.30405056764884
C         5.07122258950692    1.68927494031720   15.90239185359523
H         5.94283022788224    2.19354321614650   15.54083688176481
C         4.33149455571361    0.70035062479829   15.34762209046447
H         4.45312964128717    0.18402922174650   14.41852587024605
C         4.91647279264472    3.02202893357684   18.00218296908809
H         5.84775844375136    3.45068246019436   17.63037600164390
H         5.08331839771796    2.60396237580952   18.99862990651305
C         3.83770456723479    4.12741850027863   18.08506955551830
H         4.25292189486795    4.93079692910439   18.70540820790019
C         3.57793670387646    4.67514186653088   16.69808744608471
C         2.66182209931070    4.08064292362668   15.83845714214237
H         2.07512372250320    3.23233626549893   16.15923246335902
C         2.48663192775644    4.57926736149684   14.55883989242371
H         1.76891731335366    4.11311961667220   13.90191895287232
C         3.22202005116018    5.66879110369955   14.12551933079607
H         3.08029295399088    6.05652442431556   13.12898678597906
C         4.13686870663572    6.26347534748269   14.97805923939022
H         4.71000070569151    7.11651917995597   14.64988287241575
C         4.31528260236506    5.76750966011174   16.25696292187869
H         5.02846156645548    6.23698714752583   16.91940279023095
C         1.90760124784927    1.37119666219929   21.23270069672467
C         0.98990412822317    0.48568924458519   20.65668681108819
C         3.25137119266732    0.89810665216857   20.93904793768942
C         3.14230651848969   -0.30626647976173   20.19775842254571
C         1.74028914027434   -0.52432641893080   19.92963271642688
C         1.58603860093018    2.51445390733124   22.13773443377521
H         2.39851197661251    3.23737452405444   22.17571124784331
H         1.42976245841902    2.14216892210835   23.15128090471302
H         0.67583445947975    3.02366746605375   21.82660997072225
C         4.49458109888313    1.42942983548978   21.57152069153794
H         5.38355130475524    1.09665284819005   21.04093208199036
H         4.56153497377196    1.06120697945351   22.59647850069493
H         4.49658057209911    2.51722136131472   21.61448886292858
C         4.24822075777633   -1.25454798740153   19.87169761333350
H         4.03121616066112   -1.82140430356154   18.97023674020538
H         4.36455914649367   -1.96081634702650   20.69478436556551
H         5.19480461889994   -0.73749122613815   19.73591463098110
C         1.12896754603468   -1.77378789835004   19.38892008676422
H         0.21506310526743   -1.55502328051927   18.84092259636950
H         0.86732953573938   -2.42993810141122   20.22084705252368
H         1.81483296379360   -2.31070405322821   18.73903988559771
C        -0.49198086754969    0.48347647132700   20.80232116469018
H        -0.83473574241121    1.34204884045559   21.37252472180250
H        -0.80618350315481   -0.42466065185247   21.31662053150545
H        -0.98004861563893    0.49929952762758   19.82869330912018
C         2.27969242176374   -0.54768861566422   15.93797732301845
H         1.69655478059825   -0.68210758027483   16.84934623517589
H         2.74444053547916   -1.49711453340887   15.65754693547559
C         1.35809581053405   -0.06173466672508   14.81755654207304
H         1.93644930729869    0.11301464089313   13.90861058055647
H         0.90601275007362    0.88181466077378   15.12452427783145
C         0.25454331008481   -1.07782266701229   14.53397238231459
H         0.69922065554331   -2.03173760157453   14.24225951830792
H        -0.32273408940997   -1.24131270304256   15.44546363986367
C        -0.67462778962663   -0.58981121320908   13.43029521544396
H        -1.45770360163836   -1.31935268753906   13.24347803688205
H        -0.12436757610770   -0.43401981764539   12.50529302326316
H        -1.14144258875625    0.34945307062764   13.71623385577875
Cl        0.40340427935745    1.79471795718497   17.62425546043523
N         2.62177873642220    3.58172349968459   18.72346185510397
H         1.79964733766281    3.89636913970306   18.20161967810409
H         2.52847113199023    3.96153221437103   19.66249211870828

