63
CSD_code = DATPAS | q = 0 | S = 0 | Stoichiometry = C21H35Cl2IrN2O2 | MND = 8
Ir        9.85406955002857    3.19167556592152    3.00690678828895
Cl       11.54755853358830    4.11705873117038    1.63547196911572
Cl       10.96518522651776    4.12373472435191    4.85812680483669
N         7.79223703201618    5.33768549176779    3.73210356623842
N         8.13157028901399    5.26822405479944    1.61104572426768
C         8.59160153325207    4.79015346459961    2.78933986238133
C         6.86152414307623    6.15419608005997    3.15166003347631
H         6.15823715681743    6.70913441497272    3.73688465493936
C         7.07444565063494    6.10995317988030    1.81778773767987
H         6.59320697952541    6.61733768026848    1.00781344412432
C         9.98979513973152    1.06942989828392    3.91775945263325
C         8.27137586293415    1.69052476475937    2.47853936761291
C         9.43400760593538    1.42407814674979    1.70485399932471
C        10.49267299360109    1.02618303749421    2.60802952345824
C         8.63091035535175    1.55687665444694    3.86071166905124
C         7.91581156605920    5.21588492698093    5.15931848108347
H         6.95912570688019    4.87651358397306    5.57056629683925
H         8.69382047542803    4.48380776622933    5.37173998891178
C         8.30646472596247    6.56019285817841    5.83635834095079
C         8.69157877570602    5.04729472524644    0.30548189771425
H         9.51048752356566    4.33571074535987    0.40358183973389
H         7.91493647075132    4.63768212118022   -0.34987302245894
C         9.24934054624367    6.35116362331731   -0.33142463282539
C        11.82322904934827    0.52664983774468    2.14921801614664
H        12.28129664064631    1.23938735560683    1.46416923766444
H        12.49978251042409    0.38151550809739    2.98757019573044
H        11.70638741647205   -0.42240296855470    1.62238793458315
C        10.67170697928721    0.65326984960118    5.17831497817280
H        11.61573703237309    0.15770244487740    4.96685262663243
H        10.87662629474078    1.52003231721006    5.80846060224079
H        10.03297944676753   -0.03035431393643    5.73770590256177
C         7.68585675635474    1.54822815918042    5.01971374921906
H         8.18230988341744    1.89724721860986    5.92240370843177
H         6.82321069434682    2.18193641589776    4.82732029271773
H         7.32737145212608    0.53220817892155    5.19953643862313
C         6.88864587616653    1.92783494783032    1.95906504937799
H         6.32938343153535    2.59628550273245    2.61063474697980
H         6.90970003226903    2.35995572642691    0.96152314952726
H         6.35166278021239    0.97884816753739    1.90741755984140
C         9.53499299517101    1.31797832232770    0.21863266014666
H         8.67125380602443    1.75977583867125   -0.27200711249321
H        10.43390871908496    1.81851204946706   -0.13845112944609
H         9.59773405661741    0.26777649073850   -0.07224764070481
C         9.34044781116115    7.30820943104311    4.99911737406261
H        10.13947670007745    6.63102396872365    4.71398658290701
H         8.87602349264300    7.72130933998566    4.10834058965727
H         9.75270635965759    8.12906919552019    5.57803306927694
C         8.87884459153024    6.23557298016747    7.21547806305296
H         8.17944225625425    5.63242772145273    7.79400426975880
H         9.80602578530207    5.68308390453893    7.09671682091682
H         9.08238909986011    7.15544686878186    7.75860098024791
C         9.97309986665409    7.19656700636569    0.71293506657448
H         9.25732893183410    7.65173213118581    1.39134227142454
H        10.66227642053364    6.57261297178747    1.27347091291567
H        10.52494123191346    7.99084723636479    0.21942640635573
C        10.21581464743208    5.94629139497599   -1.44383882399702
H        11.07199943740076    5.44056820122112   -1.00766558139511
H         9.73234868751932    5.27541607620882   -2.15382213308788
H        10.56114465099916    6.83014078562541   -1.97498569204669
O         7.15898404737697    7.39413666442448    5.94413276072344
H         6.66797293985464    7.14691863827093    6.73516789394271
O         8.17717660235756    7.13099799917627   -0.84729065358497
H         7.95221674373120    6.80874419534388   -1.72675493112084

