61
CSD_code = DATXUS | q = 0 | S = 0 | Stoichiometry = C8H32B18NiS2 | MND = 10
Ni        0.00008020081909    0.00009730124933    6.50336596893271
S         0.32515640143540    3.11631066156784    5.85219745384344
C        -2.40081722195707   -0.55025236874532    6.11418774366819
H        -2.43842136157312   -1.58778350924713    5.79901333436170
C        -2.14392200918748   -0.28367068907538    7.58688153704909
H        -1.99976137286453   -1.14763552992842    8.22737025570995
B        -1.61327479536802    0.61097776498695    5.21047904681971
H        -1.29399574103252    0.35237729998050    4.09545108795087
B        -3.43565330126679    0.57068807083313    5.40408595314024
H        -4.09056437827463    0.21870149902742    4.48842660233058
B        -3.76472640559839   -0.04410123956974    7.02271514450614
H        -4.58038414424352   -0.84800794202450    7.29024389676481
B        -1.22604831877821    1.11180946223458    7.80824030626576
H        -0.59702804732563    1.25170476204589    8.80109005103311
B        -1.06160853851909    1.84377550747345    6.27952537677819
B        -2.62428359052564    2.11910090847650    5.54119651943287
H        -2.79688269889115    2.95767762227385    4.71517533656256
B        -3.88219914634992    1.67617670808928    6.72776635264818
H        -4.91926982666906    2.23455098439506    6.78593124375062
B        -2.99098951029193    1.05243749176965    8.16408488731905
H        -3.34215185219258    1.06712946191599    9.28864954233237
B        -2.38412476795585    2.44094017234836    7.27016631671658
H        -2.35922321399478    3.52026562670184    7.75664875577963
C         0.44559704018916    2.92004009182757    4.04393509510664
H        -0.54379320585083    3.00118280021324    3.60734493810539
H         0.85034413367218    1.93271928558779    3.84873572249252
H         1.10814850754289    3.68141866544833    3.64345449230000
C        -0.47842596057390    4.75974022621083    5.83906934378064
H         0.15930780688442    5.45783918800672    5.30614017130410
H        -0.59045903496549    5.07756493348483    6.86916142557144
H        -1.45471237481501    4.68670448963628    5.37299827115575
S        -0.32531288770560   -3.11606728699578    5.85219603470431
C         2.40105370372161    0.55019797837261    6.11419010393109
H         2.43879180621896    1.58771851818533    5.79900076284554
C         2.14411662551383    0.28366320994949    7.58688568042693
H         2.00004549553730    1.14765129685421    8.22736477069739
B         1.61338990006058   -0.61094843751635    5.21048525171751
H         1.29414495587968   -0.35231739262330    4.09545318562091
B         3.43577365776635   -0.57086718664368    5.40410614520901
H         4.09073152083659   -0.21896965208301    4.48844521945388
B         3.76490145062594    0.04390385806424    7.02272976278973
H         4.58065127416608    0.84771830248800    7.29025600435727
B         1.22609246128192   -1.11171387742758    7.80825780190172
H         0.59705378926183   -1.25152672990207    8.80110887180222
B         1.06158430625336   -1.84367605418889    6.27954360142102
B         2.62422951904896   -2.11918488563709    5.54122709278032
H         2.79673880548903   -2.95778616684489    4.71521166163356
B         3.88218416577679   -1.67639193580224    6.72780118007974
H         4.91918945508108   -2.23488639963629    6.78597679019412
B         2.99103595767078   -1.05253362829229    8.16410795098635
H         3.34218782843332   -1.06725248141727    9.28867534415895
B         2.38402123517241   -2.44097933733545    7.27020123312312
H         2.35898843122317   -3.52029593005851    7.75669600812350
C        -0.44564805664619   -2.91986395364866    4.04391684456986
H         0.54375732110039   -3.00108476057264    3.60737393621420
H        -0.85032417737254   -1.93252830225138    3.84865492652623
H        -1.10822517222070   -3.68121678251654    3.64342738751093
C         0.47810945074577   -4.75957351839883    5.83913682313482
H        -0.15967684661078   -5.45762842848210    5.30621242006952
H         0.59008562244874   -5.07738601919285    6.86923808209392
H         1.45441512976129   -4.68665372364423    5.37308694841585

