56
CSD_code = DAVBEH | q = 0 | S = 0 | Stoichiometry = C20H34NbP | MND = 11
Nb        1.45723518973686    1.57665519946671    4.58060277072881
C         2.20223125414226    2.25649702603515    6.52641432604294
C         1.26395110827013    1.56240931279999    7.41357052889654
C         1.10918901043988    0.21142680604860    7.45049959402255
C         1.63926924491022   -0.73965639853371    6.50419276143030
C         1.95428988854324   -0.39366254174252    5.23577723069131
C         0.49107796911386    2.42423154560668    8.37627621279441
C         1.77460606896958   -2.15323563995209    7.02125849728916
C        -1.12674416762067    3.44356404555790    4.24136562039025
C        -2.55909944016919    3.35401544275348    3.78827610535323
C        -2.82171425587547    2.07554428863113    3.47436706786245
C        -1.63681207834144    1.26217262467647    3.67015378261257
C        -0.60233602873022    2.02852481579490    4.09141976227918
C        -3.46683677479378    4.53480996489051    3.75531320275533
C        -1.60105651835517   -0.21231864611301    3.40505459209887
P         1.80548390623507    2.26172304985627    2.12859114513595
C         2.61085463506268    0.87309360173733    1.21317409587312
C         1.68697816348308   -0.33898375831471    1.19000170748765
C         0.49291376951889    2.83918653935314    0.92855528678049
C         0.82967874974783    2.85126782099043   -0.55737485849398
C         3.08942459380655    3.58842313081629    1.95681066888525
C         2.75517331080373    4.76420945673003    2.86787948550952
H         3.20524762100138    1.79342587137063    6.56564751751156
H         2.29264874742817    3.31740134149517    6.80275403939378
H         0.54201226157349   -0.21176039839424    8.27401134979356
H         2.36147449743159   -1.20430045507462    4.60883345647378
H        -0.07805859578113    3.17590694218347    7.82517972820801
H         1.16986719357401    2.94917894557864    9.05141131597612
H        -0.20466347470157    1.83522121518033    8.96995771315588
H         2.20623107840238   -2.80856886453279    6.26687746538067
H         0.79587045907416   -2.54466542920366    7.30051731813557
H         2.40897361405580   -2.17626640180082    7.90783993117275
H        -0.55181375716076    4.16241974196073    3.64614281681880
H        -1.07668094574345    3.76934674416040    5.28804970480730
H        -3.76500723583675    1.68668964103069    3.12628324525209
H        -3.57616718897151    4.96761418274094    4.75119090894428
H        -4.45179505904689    4.24798640149555    3.39404967000721
H        -3.06988877299136    5.31278550861469    3.10037367739328
H        -0.72614168224127   -0.65706242202720    3.89054871198386
H        -1.54953967413100   -0.41870335255117    2.33325089953412
H        -2.50032614929212   -0.69101997142931    3.79158605699656
H         3.52699817860308    0.63040185744357    1.76374213211235
H         2.88433625037790    1.18839235269652    0.20234067102436
H         2.18377404146413   -1.19610758166373    0.73776848052825
H         0.78389152093280   -0.12541468527036    0.62162664386560
H         1.39344391581937   -0.59845479551845    2.21128554437242
H         0.22137730303142    3.84629447951388    1.25877696542309
H        -0.37633624966017    2.20433501598844    1.12316856291723
H         0.01280748941921    3.31350714513879   -1.10910181040916
H         0.96230773098761    1.84344706327595   -0.94170554216623
H         1.73392072958966    3.42161318120523   -0.76035678982107
H         3.16627402102206    3.91457034564816    0.91592861809463
H         4.04588411351576    3.14727477715463    2.25593096928672
H         3.55030570920629    5.50792861229524    2.85072199478500
H         2.62853228673298    4.41529704139390    3.89952353305342
H         1.83138242342664    5.24728826278200    2.55246491352742

