50
CSD_code = DAVDOU | q = 0 | S = 0 | Stoichiometry = C16H27ClN2NiO3 | MND = 6
Ni       11.67848119887795    3.91213373259504    9.18465907758864
Cl       13.78957903027264    3.74730026116221    9.73381388308399
O        11.28436750297163    4.39035489876838   10.91893585244063
O        11.59567607197107    6.11228077470641    8.64257240491040
O        11.68958794884882    1.61794717549197   10.25975282467793
N        12.03733478420333    3.35551699901709    7.33924769712744
N         9.53389551136105    3.55531023373623    8.77673579627137
C        11.38234874980662    5.51755458415574   11.49898504664540
C        11.55779530076297    6.76439905414376   10.91484613924509
C        11.66852438031596    6.98733646887567    9.52502458380129
C        11.23930632664447    5.46363374903996   12.98503203816671
C        10.33696509789333    4.56511641229605   13.54639316358939
C        10.17912690324818    4.49068293378513   14.91748209807622
C        10.93541262917442    5.30240355936879   15.74611359420312
C        11.85249385273264    6.18268666979744   15.19612440112115
C        12.00482970394246    6.26638690791902   13.82403182271180
C        11.86913148796685    8.42978152621380    9.10014727794150
C        10.75020474661545    3.50681313861037    6.64569008782391
C         9.60150637236405    2.92005349653024    7.45766079217022
C        13.02011154736064    4.21815241961776    6.67495608906940
C        12.51163761015849    1.97228813250544    7.24856947191856
C         8.82728861510548    4.83062202027732    8.69724196151323
C         8.81868484023610    2.68965144708827    9.70950442139466
H        11.60418768474001    7.62547888863905   11.56152821897474
H         9.75469453256216    3.92926240708202   12.89509883606532
H         9.46814095358468    3.79605601674013   15.34110330091150
H        10.81630808070664    5.24350516788268   16.81804605909553
H        12.45571403359226    6.80531011062914   15.84074392008424
H        12.73765044969277    6.93747672742873   13.40315596897076
H        11.09754030319580    9.06285631383503    9.53230393512569
H        12.83652324269405    8.77853837174311    9.45560532859470
H        11.84056082062223    8.50622832478776    8.01591972967346
H        10.57646344995757    4.57447687675962    6.49630704480850
H        10.79310693986289    3.02431377849660    5.65712612739927
H         8.65509665398842    3.04701451403394    6.90742906988052
H         9.76574353977282    1.85022817733276    7.60154998661565
H        13.08481794946662    3.97511124984531    5.60705589737504
H        13.99582402625014    4.07704805719006    7.13586985754169
H        12.73248527719333    5.26147176649553    6.79472774326025
H        13.49425222611539    1.90641288451323    7.71250236497965
H        11.84147549777564    1.29779232946349    7.77577393395095
H        12.58859003752193    1.66180873550365    6.19858817721058
H         7.79560844429865    4.68766865850092    8.34279800126811
H         9.34320403833026    5.51346200641670    8.02704868697327
H         8.79985255779374    5.29009766402388    9.68392839172037
H         8.77838631073197    3.17044368069879   10.68474940339141
H         9.34404734479439    1.74283921340195    9.81105227888104
H         7.79113422211047    2.50230806970126    9.36674738198099
H        12.65465896686125    1.71485907975878   10.22306832073307
H        11.43954220291490    2.00032433337029   11.10815150909459

