91
CSD_code = DAVDEJ | q = 0 | S = 0 | Stoichiometry = C42H42Cl2P4Ru | MND = 6
Ru        2.94782592017523    9.65481324158138    2.85111498809549
Cl        2.28839720863207    8.66224656272242    4.93159106672522
Cl        3.56278610824775   10.64825717694218    0.71444217077705
P         1.04624444270684   10.94339933073199    2.74621470271261
P         1.72459164688636    8.16784157322663    1.68864875271649
P         4.58459517559585    8.18244167224737    2.41406554032968
P         4.61460241835605   10.92510499219840    3.79346145359142
C        -0.59667494521638    9.74573031796161    4.65372957714643
C        -1.24109295172897    9.68252277145910    5.87462804815013
C        -1.24423610063968   10.78129541751776    6.71775298050374
C        -0.58929200827958   11.94247514575705    6.34200881874006
C         0.05790805909737   12.01014570601741    5.12203106213475
C         0.03546139603915   10.91990179554366    4.25594116305242
C        -0.36903514941275   13.29282179019428    2.28428244857908
C        -0.52210122492459   14.60364954876621    1.87981797388460
C         0.57288479544917   15.32402729932069    1.42427970169785
C         1.81869546568638   14.72616365779623    1.37059180774066
C         1.97685134528555   13.41210260722292    1.77871881427260
C         0.88832324375896   12.69027050759235    2.24301956149542
C         1.37446393255284    6.06883625899911    3.36912343373390
C         0.69016071108483    5.10547359362361    4.08223798818638
C        -0.67883277697140    4.96620313908718    3.91462333549203
C        -1.35678574791389    5.79030995104360    3.03244622175943
C        -0.67591891817311    6.76175998548969    2.31862286182898
C         0.69726991957599    6.90213445872831    2.48010002954731
C         5.08975216764324    7.04391000260860    4.84249650434601
C         5.42665880517111    6.04172674227331    5.73236281581638
C         5.70442066174817    4.76682393700110    5.26676735325374
C         5.64012537808099    4.49608139116259    3.90980987025011
C         5.30672218806726    5.49549070964725    3.01312731564692
C         5.03700346736805    6.77955645076758    3.47460988131257
C         3.40939609267322   11.34161367341453    6.22497677398163
C         3.34824250095145   11.58900306160932    7.58374501890514
C         4.51728965438872   11.70314140981037    8.31710062982392
C         5.74535983964213   11.58157144790553    7.68661158115125
C         5.81166876869701   11.33543445031610    6.32714056497537
C         4.63953154780197   11.20031248625107    5.59097882465934
C         5.71695412799079   12.83035334165062    2.05558935819662
C         5.93782998199362   14.11822371435977    1.60244269295513
C         5.43759266967329   15.20037473649811    2.30685800901343
C         4.70217807967550   14.99155553196928    3.46243240616697
C         4.47305005271055   13.70653530374924    3.91617843460152
C         4.99245572903370   12.61537971494425    3.22409990981617
C        -0.10093416043941   10.17910510475646    1.46356557582043
C         0.60983555279691    9.13628175044478    0.59798731805348
C         2.80354224297086    7.11108839622149    0.59669392875995
C         4.27438444334978    7.52225343503745    0.71943441485948
C         6.16932752804322    9.11685199006789    2.28623929926253
C         6.24469058405606   10.05231004389611    3.49264635111225
H        -0.56289255451223    8.86876602676984    4.02058569541694
H        -1.72630886632747    8.76549925698504    6.17577837782669
H        -1.74365326974885   10.72726105263080    7.67427922003081
H        -0.57368799390772   12.79600671476469    7.00506510774114
H         0.58392803983803   12.91221658852566    4.83518713004790
H        -1.22164418076935   12.73093683450668    2.64373772546737
H        -1.49742456717685   15.06785597212527    1.91745084215792
H         0.44820462289888   16.34962215906377    1.10804892832902
H         2.67404308071551   15.27793960590245    1.00946325620589
H         2.94455412456280   12.94004552035803    1.71919896082111
H         2.44045872012809    6.20301673787328    3.50963395763456
H         1.22123552081283    4.47167797884254    4.77690219022755
H        -1.21959051388836    4.21808575353619    4.47570104014443
H        -2.42431409626897    5.68204368235980    2.90243786379378
H        -1.22201573311778    7.39934887092597    1.63760182879139
H         4.81770110735151    8.02703185446276    5.20551573015076
H         5.45916205622571    6.25329592087840    6.79084225066236
H         5.96105542267854    3.97992790716142    5.96097371144064
H         5.84705408516430    3.49938993764939    3.54666586484552
H         5.25468403504091    5.26442002531537    1.95882164845579
H         2.50047483378871   11.23779043918942    5.64607789237669
H         2.38727690470758   11.68518612696645    8.06754406296103
H         4.47455176274664   11.88968617112379    9.38046466717343
H         6.65765067143535   11.68101832019813    8.25763556170520
H         6.77521000925267   11.25681259578171    5.84386669482032
H         6.08849300709365   11.99207225868543    1.48522536996054
H         6.49827719869335   14.27638938626819    0.69234946470172
H         5.61423782979294   16.20553732497489    1.95200347572590
H         4.30093077041678   15.83296421196876    4.00880028855001
H         3.88711631958371   13.54252561430142    4.81046414136431
H        -0.49943354173221   10.98442281762146    0.83880748973122
H        -0.93242062717584    9.72183772849095    2.00924234223039
H        -0.09300703216973    8.49855112011867    0.05218215007399
H         1.26789517784416    9.63452821241858   -0.12395141119271
H         2.45370397006391    7.19556460703849   -0.43721793762003
H         2.66497459641622    6.07525125113066    0.92592538357311
H         4.95331210520879    6.70590582815588    0.45892604291737
H         4.48000510435647    8.36775040673586    0.05390382722263
H         6.11254309049933    9.68445267100000    1.35124771717786
H         7.02840084628000    8.43830902011288    2.24790933126875
H         6.44103241530475    9.45770076924861    4.39208007003743
H         7.04665567809942   10.78844738975434    3.37533270933990

