109
CSD_code = DAVDEM | q = 1 | S = 0 | Stoichiometry = C36H66F3P2PtS(1+) | MND = 4
Pt        1.90591290314756    5.52891091035194    8.41086678228880
S         3.43888172697636    4.03113562913917    8.00096204772012
P         0.48488629951352    3.77283606351126    9.10745159580803
P         2.98500640799060    7.50952853828486    7.70156530054782
F         0.36017469673248    6.73457505517804    8.78232313318294
F         4.83505542327386    4.50935653914555    8.70722320533590
F         3.98641986901623    4.36008962153876    6.48855422486153
C         1.42180988960317    2.34237580308712    9.84806820238066
H         1.93182381403964    1.87632688587763    8.99360455706214
C         2.50658544055903    2.83301422724124   10.80854001278865
H         3.09152151652627    3.64491779437831   10.34751783612882
H         2.05468144889179    3.23763977939687   11.71463140653839
C         3.42582950476540    1.67350148588971   11.18273882449587
H         3.92487717137937    1.29351726279068   10.28811026632102
H         4.19604216789950    2.01759696399447   11.87378181490945
C         2.61366380289777    0.55136340595298   11.82684442605209
H         2.18312198422460    0.90906364494729   12.76413216670514
H         3.26901384146732   -0.28731295532625   12.06177802556413
C         1.49420115467212    0.08698225975495   10.89888078992862
H         0.90599018262594   -0.68869075865571   11.39021127154012
H         1.92498807823088   -0.34673094348198    9.99356491845974
C         0.58519654184758    1.25758113117283   10.52375136498784
H         0.12798257792659    1.65045566006550   11.43222300605727
H        -0.20758909051039    0.91419953777797    9.85653543241019
C        -0.30655057397649    3.11944746503918    7.56270184223065
H        -1.03515836581833    2.33992136035160    7.80926352933665
C         0.75756120110410    2.53856761265387    6.62788952333315
H         1.55206093681533    3.28810431437915    6.48279380838191
H         1.20683244936401    1.64359571079876    7.06163143653194
C         0.16830763785815    2.17402504726063    5.26663901876238
H         0.95833143435081    1.78411148227256    4.62316152095457
H        -0.57424474247605    1.38455271276165    5.39837020833429
C        -0.48971723913349    3.38532663164998    4.61793085590142
H         0.26229466657838    4.15670453226935    4.43858819025302
H        -0.91477788643082    3.10414057874688    3.65445044201501
C        -1.58199682858339    3.92937284155002    5.53100249273719
H        -2.35620794957796    3.17026472103196    5.66024239430688
H        -2.04983264388199    4.80501925674772    5.07892401090887
C        -1.00841056963403    4.30635113367501    6.89272176034031
H        -1.80974640557972    4.68002060637171    7.53105090080397
H        -0.27946659856787    5.11849314948858    6.76853257308468
C        -0.88683310764429    4.36870111769773   10.19574232475370
H        -1.23142390497739    5.27030790714598    9.67184244994516
C        -2.08833218205420    3.44458415890986   10.38707804321047
H        -1.81102775607418    2.55825949652904   10.95702843428080
H        -2.48855165163841    3.11985796580209    9.42486141412589
C        -3.17085263196921    4.20567906624306   11.15468699204375
H        -3.49900270236494    5.06381025373565   10.56470301164611
H        -4.03318550768027    3.55514325869075   11.30745932162833
C        -2.64103005889054    4.69067121244864   12.50120201563993
H        -2.37298888532893    3.82986813593526   13.11812156920036
H        -3.42127010734814    5.24326629218510   13.02519842815980
C        -1.41691330627597    5.58155914713009   12.30962800279758
H        -1.69709977201128    6.47541467339343   11.74988883945429
H        -1.03160808993451    5.89959412811168   13.27938446264995
C        -0.33117609877998    4.83008343123085   11.54400768591177
H        -0.00999601787306    3.97158897719287   12.13690378855776
H         0.52975175011543    5.48576590757072   11.37846869908115
C         4.83774776279929    7.48192706602025    7.47319360549287
H         5.05499773026552    6.51485504117017    7.00269058241497
C         5.41630107575127    8.55783869009352    6.55302807463837
H         4.94515217948515    8.52333013652250    5.57006996262930
H         5.25610096870618    9.54940463756518    6.97694226748398
C         6.91674494571484    8.31835535081540    6.37228564656040
H         7.06975368784378    7.35943071638488    5.87142114907005
H         7.33045288940171    9.09773123612985    5.73074547863670
C         7.64429592416876    8.30801650910046    7.71247068504344
H         8.70443598981328    8.10749690077777    7.55472305889693
H         7.55765831796882    9.29017256704436    8.18231817295391
C         7.04466889038475    7.25052369646611    8.63306223452984
H         7.54776733083749    7.26676604947598    9.60085421181069
H         7.18821412690364    6.25879882007789    8.19923026991941
C         5.55408478791972    7.51620647475598    8.82491264593388
H         5.43689256663164    8.50172188128043    9.27601833577641
H         5.12732097006916    6.77641522487298    9.50660336682076
C         2.29144822330171    7.97824585507710    6.04397091130339
H         2.87585404497850    8.81242358649578    5.64207003980398
C         0.82560290881925    8.40704717819838    6.11625045039068
H         0.23323040188325    7.62365533778698    6.59305409566942
H         0.72596368963025    9.31545979197395    6.71089555466072
C         0.27906006690492    8.67657093060926    4.71584205628856
H        -0.76750615286486    8.97507065118007    4.78876156496993
H         0.83043184387212    9.50361852812787    4.26304680935688
C         0.40929299163320    7.44097632691226    3.83319828908902
H         0.02150651098000    7.65174715024714    2.83617058780804
H        -0.18356126696839    6.62806146211076    4.25777482986798
C         1.87131375298657    7.01906933517539    3.74248413979365
H         2.44803839016500    7.81182986275202    3.26172390273344
H         1.96939030687664    6.12074101310365    3.13005443026623
C         2.43809643536369    6.75462098290104    5.13357407164717
H         3.48741610817807    6.46444604167538    5.04835364343843
H         1.88910066580570    5.91950479930799    5.59135004743895
C         2.46229648845153    8.83305081051250    8.88631378057725
H         1.38159202948542    8.89884067984524    8.70875533616033
C         2.62206309036267    8.38094251762144   10.33995928553592
H         2.19010375477434    7.37740951106867   10.45802842638377
H         3.67185928320827    8.33789187485751   10.62790675554637
C         1.89874184073266    9.37112318321176   11.24895356928962
H         0.83377518675467    9.36900828803264   11.00979100113064
H         2.00994504710707    9.06819368910616   12.29127393394286
C         2.46664554132853   10.77478349073265   11.05292004481946
H         1.93300651091163   11.48090605563674   11.68990872759420
H         3.51706094378048   10.78572234951696   11.35272433455423
C         2.35047592277403   11.21068660503676    9.59440036876329
H         2.78399974849239   12.20405202116531    9.46865860677701
H         1.29597486637398   11.26862007149998    9.31655622242569
C         3.06417622556797   10.21879481031859    8.67511568495891
H         2.95230546923064   10.53255672578228    7.63454480355730
H         4.12719313914879   10.21682965479490    8.92068334141267

