52
CSD_code = DAVFAI | q = 1 | S = 0 | Stoichiometry = C16H29N2NiO4(1+) | MND = 6
Ni       11.72535123466337    1.70059580941752    1.17941426004365
O        10.42957805448590    2.27704266979825   -0.11673677861521
O        11.23533042086226   -0.06805326231752    0.93325291191871
O        13.43818617534004    1.36805870513930   -0.52712109615572
O        13.34380407134851    0.85330712931032    2.35131797603795
N        12.21131304318500    3.60878557354251    1.55449663680805
N        10.41743728913072    1.91875496273258    3.16826836668519
C         9.57510385031682    1.56804860558404   -0.72807625014937
C         9.43383559457741    0.18451429652380   -0.57740883291231
C        10.27914877865219   -0.54449846405373    0.25582249067785
C         8.66129566461798    2.28521926619439   -1.65016063501521
C         8.29800454621100    3.59775283286148   -1.35253492771568
C         7.44264119345504    4.29389570130447   -2.18437511679991
C         6.95414215660258    3.69352505977003   -3.33350043658780
C         7.32662285545467    2.39614516166028   -3.64707964424546
C         8.17337727430750    1.69103398831325   -2.81197829539941
C        10.05541767078939   -2.03337204361721    0.35831680985656
C        11.11209645446095    4.15344492582037    2.37544912824589
C        10.78115139490967    3.27976768442475    3.58548379389142
C        12.31975372965639    4.42209134969199    0.33754823520005
C        13.48548307892001    3.72751605289825    2.27232153770890
C         8.99443892184471    1.85654567010891    2.83180674409878
C        10.67973495967463    0.96984642095771    4.24933236131671
H        13.18293039319260    1.93667240192525   -1.26044361275812
H        13.32625595993135    0.46189128085239   -0.83252163867735
H        14.09659652666720    0.81279310554076    1.75043390166565
H        13.06492141046706   -0.05444560337670    2.51737510436324
H         8.64496154869351   -0.33076284372885   -1.09500886668396
H         8.67884907555387    4.05918849942889   -0.45319663849848
H         7.15776618132125    5.30526975668880   -1.93798927184908
H         6.28827760980080    4.23676425673222   -3.98584399421118
H         6.95637450829144    1.93118153641502   -4.54780145518610
H         8.47426911237318    0.68966315954778   -3.07813655868966
H         9.07051685821272   -2.22577427789438    0.77831424739053
H        10.09259702502389   -2.48710813263164   -0.62908461705147
H        10.81091634489031   -2.48565669625472    0.99504702523755
H        11.37472672939044    5.16184692429319    2.72276864012323
H        10.23057939731172    4.23125824592347    1.73619285440027
H         9.96585336647164    3.75325996445476    4.15146100612495
H        11.64900979733029    3.22146343393921    4.24373355447790
H        12.44256351713725    5.47994358835235    0.59351656097318
H        13.18758874704188    4.10584416217149   -0.23754962903353
H        11.42679428505011    4.31125049917484   -0.27415446817314
H        13.48842694308424    3.11548260510790    3.16883467099651
H        14.29760302994111    3.39660615543226    1.62834483326033
H        13.66698619333754    4.77065719962784    2.55294750540997
H         8.36908181051145    2.09378294026356    3.70276686238935
H         8.76063442452159    2.55685085695568    2.03321986558432
H         8.74479787422215    0.85403456104668    2.48897615015298
H        10.08851644932239    1.20370598757762    5.14373869415600
H        10.41944405937600   -0.03306975743456    3.91637045108729
H        11.73591240806385    0.98833809380867    4.50962958412456

