27
CSD_code = DAVGOY | q = 0 | S = 0 | Stoichiometry = C6H14Br2N2O2Pt | MND = 4
Pt        7.91518013199687    5.21059332433477    9.58173971301752
Br       10.22786881912011    4.61374005382630    8.98666684704424
O         7.84365183867853    2.39034321392661    9.76658910318491
H         8.76497732694456    2.62400834805787    9.99357439585489
N         7.37649738490310    3.42664100958964    8.95933493409149
C         6.55419987872248    3.10674261220748    8.03616002425666
C         6.10170704981990    1.70082570258784    7.84974235089723
H         6.95874110959837    1.02858328535305    7.88278970778103
H         5.56591369941974    1.58021359270263    6.91423632815448
H         5.44909839693136    1.42198940607576    8.67739960256903
C         6.04325657716154    4.17222839976866    7.13335387992543
H         6.63412050420187    5.08697523492793    7.23490415936657
H         5.00598608346991    4.39902386370611    7.37942495642391
H         6.08408710010622    3.83177124712577    6.10100907952987
Br        5.60212549727464    5.80703201308429   10.17691629768078
O         7.98711420381832    8.03089444620256    9.39693326137724
H         7.06586838199825    7.79714851928798    9.16941596243268
N         8.45392650177375    6.99451152310433   10.20424217096528
C         9.27599364459757    7.31425816810848   11.12767034987175
C         9.72848691122903    8.72013835500982   11.31433514133858
H         8.87152291645500    9.39244468040894   11.28072434863955
H        10.26368433260257    8.84072798103500   12.25018874212668
H        10.38165994625990    8.99889784251544   10.48708403054010
C         9.78669631193940    6.24865614512365   12.03048492516555
H         9.19595717740407    5.33386299332099   11.92857508049829
H        10.82407616538331    6.02201218083282   11.78471613391551
H         9.74550210819132    6.58893585777643   13.06288847334786

