50
CSD_code = DAVHIR | q = 0 | S = 0 | Stoichiometry = C25H20AuO2PS | MND = 2
Au       -0.60147359502535    2.80864009645043    2.91253464941644
S         1.50458209166848    2.66164424029126    3.91358688647131
P        -2.55709789834173    3.04422988370651    1.79782617875802
O        -0.87372493311710    0.61108010524100    4.06480326989151
O        -1.34473646393150   -0.42895344663183    5.95047160161100
C        -0.61556229089940    0.47325900266145    5.25413196107500
C         0.39292664186267    1.15264849380975    6.04528279432644
C         1.32934897717292    2.08288219551542    5.53543155968753
C         2.29554302074104    2.59372881656937    6.42006620877990
C         2.33269918556077    2.25024370155625    7.74563079416729
C         1.38742037753414    1.36115274241897    8.25736190992985
C         0.44815680646105    0.82652485877678    7.41515857068566
C        -2.76152565922633    1.89966254327580    0.40767908868283
C        -1.62186911417312    1.32210251125732   -0.14047219864338
C        -1.73684371114123    0.44603762771571   -1.20508037961970
C        -2.98697761891014    0.14299015438841   -1.71928904700220
C        -4.12544479198888    0.71218340076431   -1.16879409237434
C        -4.01854449404583    1.58886022914089   -0.10561696800902
C        -2.89929229108551    4.68555166696348    1.10928590417195
C        -3.26957389057249    4.91476908498526   -0.21000362531770
C        -3.48096731872810    6.21209663841318   -0.64454548409676
C        -3.32096004875186    7.27683854878001    0.22652160067052
C        -2.93780963476860    7.05102386523993    1.54019076184912
C        -2.71893079265982    5.76006785388182    1.97899380339915
C        -4.01547081452415    2.67374721967798    2.81050980211894
C        -5.08917011201711    3.53550189362187    2.99546217832153
C        -6.13735613767849    3.15175810454176    3.81483792329851
C        -6.11610135434483    1.92025650828314    4.44742995516362
C        -5.04090181659632    1.06232442394074    4.26781604431927
C        -3.98990172953769    1.43797132727274    3.45488384953158
H        -1.97022974632323   -0.85248311231998    5.34290249097418
H         3.01582166091306    3.28514035472809    6.00974899379415
H         3.08792777365538    2.67225684759418    8.39293319997882
H         1.39929471121396    1.09134047559243    9.30256668562779
H        -0.27765416522268    0.12645614084492    7.79787600442666
H        -0.65410679321787    1.55898368472884    0.28324352872394
H        -0.85216179619628   -0.00413858307407   -1.62990918659927
H        -3.07708173892058   -0.54294644661601   -2.54846128354143
H        -5.09907318384606    0.46959087848535   -1.56893545400568
H        -4.90282782875115    2.03255699987686    0.33257511969318
H        -3.38954960118508    4.08518700000502   -0.89253869580397
H        -3.77013008247551    6.39166964374169   -1.66963039544797
H        -3.48736517006307    8.28588693319301   -0.11989741830002
H        -2.80324324201496    7.88191834556647    2.21660203569470
H        -2.40403212786705    5.56503393674872    2.99714716957407
H        -5.10577319338041    4.49800820991891    2.50296822840380
H        -6.97410548302058    3.81933613853394    3.95978844612304
H        -6.93648934379299    1.62896264352392    5.08630787592399
H        -5.02727115054136    0.10487809303009    4.76804233102893
H        -3.12939008788796    0.79733752337346    3.31067482245376

