46
CSD_code = DAVHOY | q = 1 | S = 0 | Stoichiometry = C11H24ClN2O5S2Zn(1+) | MND = 6
Zn       -0.01897133401068    3.23281290798687   11.00614093349140
Cl       -1.79502680997980    5.46472196537641   10.16431803143287
S         0.63601436902566    3.19699229935010   13.45234832009345
S         0.34594263187649    3.50381128653061    8.60373144050968
O         1.91710704592632    4.58324504202977   11.01487585394175
O        -0.98217825632447    5.00805615556305   11.31170122731736
O        -2.57515759720614    6.53158075725183   10.57893144579261
O        -2.55508330813025    4.33992264196605    9.75386295250454
O        -0.87184246690179    5.81302614197629    9.14856427893017
N        -1.78919552008123    2.14068268300960   11.20773484715713
H        -2.14035408134063    2.25103010966977   12.15893075686540
H        -2.44294559722138    2.66968089983967   10.62006846468880
N         1.30463162734627    1.35378278341075   10.85288135135314
C         1.89459214044290    5.36143561329837   12.20907105946698
H         0.97769755628312    5.96050793758906   12.23619503156558
H         2.76575917552276    6.02987876391776   12.21926547801907
C         1.96221593277930    4.45669042824120   13.42446519746124
H         1.83624733619614    5.05723092809108   14.32434688352750
H         2.91227299012940    3.92741786321934   13.47438005570469
C         1.63208181197001    1.66466109866279   13.32922681257763
H         2.41028671878734    1.72037725475286   14.08973359783604
H         0.95879701876606    0.85586140008426   13.59831425660372
C         2.26182001447791    1.46167703577201   11.96272574762999
H         2.89207904125168    0.56209635441390   12.00905315530745
H         2.91230646690355    2.31573891295167   11.76298352870253
C         2.05045000429269    1.49486601416119    9.59015389485506
H         2.57730765913971    0.56035852275140    9.35582496677490
H         2.80454506672553    2.27210322241835    9.72465775416322
C         1.17904582735353    1.87813933132609    8.40453984250956
H         0.36356263297838    1.17497865741880    8.24597198356474
H         1.77963747010350    1.91441559593958    7.49704528338241
C         1.80399146060776    4.60993720972970    8.58290552578786
H         2.67599528068216    3.99437354637469    8.37236904869546
H         1.63521697547397    5.30392672354602    7.76124605996725
C         1.97348589957653    5.41710749497173    9.85907356629293
H         1.18279793332601    6.17184841651542    9.90791457968473
H         2.94969018985403    5.92043557962731    9.83259107433804
C        -1.84768061585140    0.71671855908813   10.84720834729040
H        -2.81805470427577    0.29385226575182   11.12599833411389
H        -1.74229487836016    0.63047720953281    9.76421078018575
C        -0.73707211628034   -0.05541395804190   11.55274652317301
H        -1.00088303055771   -1.11426991073194   11.55836522367118
H        -0.69240151985213    0.27389358307194   12.58962688058077
C         0.62442977230262    0.03689269072338   10.86244053398535
H         1.29455710708556   -0.70084020323531   11.32094227151087
H         0.46897667926303   -0.26881981589127    9.82701681701138

