45
CSD_code = DAVHUE | q = 1 | S = 0 | Stoichiometry = C11H24CdN3O4S2(1+) | MND = 6
Cd        9.93084048557789   13.16075349296539   10.69043764663732
S        12.11926223680867   14.66919909903027   10.68833852004365
S         7.47351371197807   13.48916073064073    9.81615893756283
O        10.05631981394239   14.23900663392148    8.44934302445502
O        11.30860179306976   11.88680114383532    9.69061408649833
O        10.22402187121776   11.28664785435434    7.96346293773004
O         9.28729964413415   11.27701716826584    9.87018088347141
N         9.23213495737608   15.36221623692881   11.73015737253764
N        10.27524103263764   11.46773298011982    9.14422158858962
N        10.10328901699593   12.17681245163096   12.65136268708387
C         9.94283504375955   16.45658790225118   11.04906309463559
H         9.69103074510623   17.42055281587952   11.52023059585896
H         9.58365859922027   16.48802528251799   10.01947980458377
C        11.46784387937394   16.34608463175107   11.03020324504447
H        11.89913994208056   16.62079967199904   11.99189604967469
H        11.87737525423597   17.02192185194090   10.28097292097813
C        12.39424211748019   14.66165280361141    8.88656549756061
H        13.20712634395020   15.35297639217336    8.66542034836406
H        12.71743907546796   13.63728166985067    8.69436917072512
C        11.17961822726994   14.99861047018980    8.03505785512900
H        10.94057251876158   16.07308104834314    8.09546359227056
H        11.42182599678195   14.76158185069723    6.98955779205669
C         8.95801398304873   14.34801574762896    7.55891824480724
H         9.25884104402856   14.01619385244172    6.55540764092930
H         8.64588405016843   15.40290457140778    7.48983586279931
C         7.80609527966551   13.46454945871344    8.02212306709784
H         8.02869914779798   12.41428809559274    7.82332665320884
H         6.88992576796705   13.74215098969369    7.50170677152217
C         7.22724956895828   15.27113754900460   10.19223817883551
H         7.69285643830998   15.86256400193805    9.40880402764338
H         6.15527108510407   15.46773434024104   10.18964960874404
C         7.78472937058907   15.58234878203775   11.57683827924934
H         7.53531804388686   16.62613036400407   11.82378913142791
H         7.26425072316242   14.93972471488280   12.28857060878953
C         9.56256559857763   15.37064371736808   13.16959246360573
H        10.63749190410901   15.51943093625760   13.26998592957250
H         9.06127673895382   16.22762536000181   13.64229086044864
H        10.89592034296621   11.53688529148917   12.57409428937490
H         9.27469888981179   11.58454220791834   12.74169877213023
C         9.20081100040940   14.09596433387266   13.94137304019411
H         8.24215437279143   13.68965583334387   13.61171109332858
H         9.08839522835948   14.38107712917197   14.98817449047540
C        10.25431664014257   12.98710901601728   13.87017686698336
H        11.25750059066469   13.42391618876701   13.86819578487845
H        10.16210188329747   12.35580333530028   14.76294068245980

