87
CSD_code = DAVNAR | q = 0 | S = 0 | Stoichiometry = C36H40N4NiO6 | MND = 6
C         2.57398694633050    6.90794443033647   10.41775695104755
H         3.04623338957798    6.93181237291910   11.40386717441079
H         2.63370012231610    5.88236451959106   10.02749943901124
C         1.10147825942639    7.29177008018468   10.56424127060709
H         0.56200250315682    6.45540688472325   11.01061302080197
H         0.67456379255371    7.48764669344122    9.57869205797062
C         0.92361074194304    8.52828962592352   11.44378389570666
H        -0.14115399278893    8.64759552343070   11.69842977069488
H         1.49010198363730    8.40343268838147   12.37115426633127
C         1.51471397200111   10.91060637886714   11.57169730632565
H         2.23334044883242   10.73210163219609   12.37775906627766
H         0.54454477368793   11.18071486426865   12.01651940787333
C         2.01418600817774   12.02181916424546   10.65690921285493
H         1.26772173165940   12.22421577939964    9.88049225723534
H         2.18908439061832   12.94124125718603   11.22953767526718
C         3.54162931259848   12.53769603527324    8.89254152320786
H         3.45247643378531   13.56003794396213    9.28456997839516
H         2.78654142573698   12.41080275298266    8.10947553725244
C         4.94683572095105   12.36924561862954    8.32896263473060
H         5.17904825104053   13.23006878318821    7.70115039456199
H         5.66326881204213   12.34307119052209    9.15288454496614
C         5.08647127135357   11.10137538483012    7.49549295324366
H         4.28088278909095   11.05842095312542    6.75781144168158
H         6.04721944026075   11.12247628290583    6.96083661169364
C         5.38753688220242   10.15808158440606   11.94333721980418
C         6.40170563262065    9.71243778001492   12.95611084417212
C         6.28193507514859    8.54512258339708   13.69435929051244
H         5.42606362362052    7.90729207151676   13.52880091153044
C         7.24842564621424    8.22559214936021   14.63102881515803
H         7.15828244798656    7.32128607687446   15.21557863800559
C         8.33017086062988    9.07069775337188   14.82647760606665
H         9.08031752152273    8.82233335763989   15.56323709838925
C         8.45660689667643   10.23387455879227   14.08516735971041
H         9.29948443710558   10.89260652398656   14.23438306253101
C         7.49417962991869   10.55764918887383   13.14030895907023
C         7.61535891825688   11.80025166907175   12.31420926723675
C         7.98230476536904   11.58554681004739   10.87813099385839
C         8.13745315180654   12.70894891898802   10.06987446361642
H         7.98872296301144   13.68055910353611   10.51665603616939
C         8.46984069561771   12.57660593494993    8.73483365482577
H         8.59078578557771   13.45473213471627    8.11756056902694
C         8.64486182732530   11.31558869029893    8.18801273643673
H         8.90665616138537   11.20673824521323    7.14517454441947
C         8.49415084022987   10.19156884521270    8.98553856868708
H         8.64044745291085    9.20728893848172    8.56178214958667
C         8.17267601668757   10.32180986805965   10.32566860754224
H         8.07152106498063    9.43829495247898   10.93978738823744
C         2.21764180835218    9.11349087642956    6.80914120643378
C         1.50892484360964    9.58815377979744    5.58301920417017
C         1.76035487735330    9.15016897567759    4.29288708682263
H         2.51521765985549    8.39532889770010    4.13016735764974
C         1.03838367843147    9.69413474184878    3.24514895308026
H         1.22401937129869    9.36570850910241    2.23294228419759
C         0.07826998775447   10.66461624324725    3.49057888483284
H        -0.47861574356751   11.08722952814242    2.66692170438205
C        -0.17755334535550   11.09853802677384    4.78201642060128
H        -0.92737953234022   11.85230887527904    4.97193659296636
C         0.53970149685916   10.55629577963529    5.83506749941758
C         0.30474663034242   10.95454594201103    7.26185444120241
C        -0.67600399167260   10.07526300852843    7.99341905455960
C        -1.01364304371603    8.79658185083929    7.56196772570588
H        -0.57913732464883    8.39670675515008    6.65776016774981
C        -1.90027404542123    8.02767002307724    8.29473894749658
H        -2.15419705996675    7.03396532703571    7.95522280134287
C        -2.46815705771796    8.52550810642120    9.45687499702887
H        -3.16206266715074    7.92047057978461   10.02176256484822
C        -2.15143556036164    9.80433285657752    9.88399047320805
H        -2.60403827293111   10.20487307202515   10.78001673339935
C        -1.26005077425651   10.57214049760558    9.15669930662284
H        -1.01756640479155   11.57949852003675    9.46416211373878
N         3.31983163137485    7.80905242111766    9.54054131670309
H         3.07232995021810    7.66823388597400    8.54310879262916
H         4.30981337208830    7.58168865965022    9.64040146174018
N         1.42413938115381    9.70407046675463   10.75585703399450
H         0.80707012295458    9.90067140193409    9.96195304163013
N         3.24536484856771   11.60143082264801    9.97627374358926
H         4.05273923576095   11.63603365447922   10.64785916477015
N         4.99223635856673    9.91284802000081    8.34170699299605
H         5.83148221228965    9.85211310582391    8.92015760047700
H         4.93843189968403    9.08947527154070    7.74159530887115
O         4.56350192145280    9.32099791527993   11.51425329510584
O         5.46496985106066   11.35511773257459   11.58442581489826
O         7.59540260899570   12.90769106405117   12.80841893401169
O         1.88247963139183    9.75073184204368    7.85683564784920
O         3.03151724718348    8.18070954240178    6.78250962077718
O         0.58851224642811   12.06550205579872    7.69147172734673
Ni        3.27415512608425    9.72253678541142    9.69403680436068

