129
CSD_code = DAVNOF | q = 0 | S = 0 | Stoichiometry = C54H68Cl2CrN4 | MND = 4
Cr        3.99228134535677    0.24089179029376   14.85358731402381
Cl        4.39230375766073    0.29730373802899   16.90204457458755
N         4.66870044996683    2.85586295268940   14.65786371134154
C         3.52353318277214    2.12019457772583   14.81711046039435
Cl        4.30732318386130    0.07883674736731   12.79573113997003
N         2.59029628057265    3.01248886438342   15.19194966794497
C         4.44920047685384    4.17069796282905   14.90060956796122
N         1.82647864694703   -1.99382205579555   14.56437973102335
C         3.08992734078837    4.28686254934540   15.27922489283054
N         3.87409491440765   -2.45362808045485   15.04039743961661
C         5.91896523113390    2.38397011006134   14.17137781086960
C         6.13610294027235    2.39270607849850   12.78452978669599
C         7.34311530916263    1.89810546324826   12.31453588713974
H         7.53747257427723    1.87172434278291   11.25475132732978
C         8.30877789959777    1.43795006249834   13.19288340482619
H         9.23228500953973    1.03135602172682   12.80746366138347
C         8.12416217133979    1.55188978725881   14.55710339474025
H         8.91792005894965    1.26183214262832   15.22596723793434
C         6.93820381962611    2.05904112636451   15.07395358340687
C         5.11192639294852    3.02503929604824   11.86772092653703
H         4.10772615329802    2.81989085308273   12.25914115265298
C         5.16071220128506    2.50418475637950   10.43343623787892
H         4.30465677998219    2.88580544757435    9.88101035823230
H         5.12196849195184    1.41755747050942   10.41564778884723
H         6.06201874317035    2.83665609884392    9.92417862505318
C         5.32832680741090    4.54315155786695   11.89416472069521
H         5.18584138414281    4.92917675162412   12.90547431479352
H         4.61714860756984    5.03431546760926   11.23420164234788
H         6.33716923846964    4.78607679174519   11.56706420892928
C         6.80890562182235    2.42315457159484   16.53476649399230
H         5.75306215548417    2.41399382876773   16.82288976559099
C         7.56123442903137    1.48049316891999   17.47106145683465
H         7.31162509266671    0.44287566314229   17.25665295200744
H         7.28367137676755    1.69378903096852   18.50100387888219
H         8.63700404286255    1.61017713086253   17.38101235519961
C         7.30566878128040    3.86578635787699   16.69206855879557
H         8.33486299095633    3.95478017928207   16.35037914399842
H         7.25520734777188    4.16532360698625   17.73624850195231
H         6.68230471450883    4.54150793388508   16.10731591402247
C         1.22430284660406    2.78329368828095   15.50034894983795
C         0.28580662677785    2.83222591041422   14.46597727575275
C        -1.05441291627057    2.71930102713846   14.80290306889380
H        -1.80863458230292    2.74821069878963   14.03446393520387
C        -1.44180455222087    2.60271075907112   16.12482123532673
H        -2.49184416444978    2.54051728161887   16.37055543863246
C        -0.49968251099030    2.59611296135458   17.13597559643348
H        -0.82403739095098    2.55627515454542   18.16429468972032
C         0.85454766607977    2.67526965181336   16.84183401115672
C         0.74961760746908    3.10288057872385   13.05267941216323
H         1.67166378417480    2.52948143853289   12.88476796571322
C        -0.26109439207116    2.68820009319037   11.98731742435816
H        -0.58730168583103    1.66491720926433   12.14869956479278
H         0.19568029585239    2.76037922485006   11.00218719007161
H        -1.12783766803527    3.34484028806440   11.99852923194004
C         1.05840597039333    4.59932753469972   12.90598175279842
H         0.15158729308283    5.18015438848861   13.06079104431801
H         1.44023438931591    4.80825109929694   11.90889799485887
H         1.79863069561814    4.92617955070642   13.63812121628631
C         1.90395751894158    2.75876215749363   17.92512001473598
H         2.85976831440078    2.42386961242306   17.50825555949428
C         1.60745406830262    1.87286452115434   19.13253522255749
H         0.72859950978555    2.21251523332859   19.67432749021797
H         2.45340487254478    1.89928887823570   19.81594975227329
H         1.45502699121701    0.84400910450689   18.81742025367456
C         2.05488433368008    4.22576599739952   18.34174146061795
H         1.11011274262903    4.61212075639789   18.71785295194497
H         2.36130267429230    4.82414816724628   17.48328927778250
H         2.80793311974763    4.32132545006329   19.12061859264228
C         2.98985064112398   -1.41469070141338   14.90921921602945
C         1.92914455125502   -3.35819071552468   14.47035476848218
C         3.27343673703519   -3.64593091020790   14.81031233208435
C         0.57957543664261   -1.37408621476101   14.29026255917947
C         0.22305226267187   -1.15842207360907   12.95805386915662
C        -1.05498986345052   -0.68331466419098   12.69843603363978
H        -1.37960127068675   -0.54529192690713   11.67875686520825
C        -1.93109094031353   -0.41650745914639   13.73350053784717
H        -2.92235353537473   -0.04742757296647   13.51448935449853
C        -1.56125169323753   -0.64666302900977   15.04542647000102
H        -2.27091900911213   -0.45594872722851   15.83293634049195
C        -0.30481033408610   -1.14874168524044   15.34853405909348
C         1.17391466078234   -1.54373512215238   11.84928746565094
H         2.19711894254724   -1.48810072783398   12.23607717654330
C         1.10414454390136   -0.62249828922748   10.63405125483941
H         1.89079974216627   -0.89086215997133    9.93218576190841
H         1.25228876365609    0.41133485329554   10.93419292150355
H         0.15149618264434   -0.70995095560969   10.11826454959727
C         0.89256481572272   -2.99721974793109   11.45310219183119
H        -0.13325630867809   -3.10375147107444   11.10728074878240
H         1.04180585185099   -3.65064515718869   12.31344248484926
H         1.56532406827140   -3.30854622036260   10.65729332693934
C         0.09603867171075   -1.54615919930155   16.75113585200747
H         1.14856064300575   -1.26465653563560   16.89300899966914
C        -0.72446066441857   -0.85940993543783   17.83912828632533
H        -0.74443341493984    0.21486446311848   17.68101223741960
H        -0.28356225949052   -1.06294358880661   18.81299306474701
H        -1.74410348331689   -1.23725512435710   17.85247795333699
C        -0.03799151597920   -3.06809615332754   16.89870057383537
H         0.29420306677767   -3.38027083382404   17.88653905763065
H         0.55546323327681   -3.59405461429977   16.14910045654240
H        -1.07798560800562   -3.36123423351908   16.77201636633998
C         5.22044059840094   -2.37041254442367   15.49106991569891
C         6.26582595016452   -2.35594873632111   14.56034891073605
C         7.56171192184128   -2.22112704494402   15.04340305423438
H         8.38741523218608   -2.17385358969907   14.35239262818526
C         7.80811431725005   -2.17239400576453   16.40169842008407
H         8.82023344535341   -2.05652911017280   16.76069871073864
C         6.77379059876387   -2.33309072154140   17.30721990693249
H         6.99574512422872   -2.37027834552422   18.36121304260508
C         5.46263373123083   -2.44917484313288   16.87166026324107
C         5.99763845442335   -2.66147013112876   13.10498087997618
H         4.98278869794818   -2.34491599880100   12.84450810029527
C         6.96681804177440   -1.97514271415613   12.14529306974721
H         7.03633541971331   -0.91073564768296   12.36216045666553
H         6.61192055057165   -2.09419370093021   11.12394371598693
H         7.96011155845538   -2.41298013423674   12.20720471313320
C         6.04996485838150   -4.18564398347142   12.94088690076435
H         7.01818386006281   -4.57058939081417   13.25442859005686
H         5.88584485677320   -4.45398137698545   11.89991045222636
H         5.27399483009230   -4.65358386536964   13.54573755259587
C         4.32302098330451   -2.75678736816932   17.81836097180974
H         3.41312553201969   -2.26407664316769   17.45352074320783
C         4.56156845273308   -2.27918632387014   19.24871591225033
H         3.64699209404036   -2.39611489596960   19.82612529981489
H         4.84290386449085   -1.22888359565817   19.26338333358439
H         5.33981694532084   -2.86295194384802   19.73420194367747
C         4.08283177786975   -4.27134138859769   17.79246829728586
H         3.80563818353143   -4.59450338328481   16.78707810002896
H         3.27693667990022   -4.53420254543012   18.47368331257086
H         4.98412312094435   -4.80149815539549   18.09306850043354

