31
CSD_code = DAVQUM | q = 0 | S = 0 | Stoichiometry = C12H14BCl2NZr | MND = 12
Zr       -0.80588615428109    1.83330769325767   11.35215574150632
Cl       -1.79471107070462    0.57733348268906   13.04521739517894
Cl       -2.78953889401233    2.90520457159385   10.77145926885880
N         3.35467276631527    2.03522644811330    9.85459669068223
C         4.35402847448181    2.94213716610705   10.37866251245149
C         3.86929751639690    1.18598486381357    8.80106504593105
C         1.39374359790595    2.84827357340611   11.45011395977983
C         0.46818109260626    3.90623068413903   11.21777441143171
C        -0.31294941882178    4.09437237273467   12.38522937628009
C         0.08763879405708    3.13409153305454   13.33491636269771
C         1.11801661492705    2.35152217736800   12.75657704652081
C         0.89423552383811    1.03886411713589    9.81765235509463
C         0.44074003181994   -0.09971568680023   10.54392367449718
C        -0.88743212155476   -0.39524377321211   10.14744365163422
C        -1.28500880490198    0.57390034017458    9.20553696725977
C        -0.20380486614996    1.47097807737036    9.01912684801226
B         2.06054113062376    1.98612309150843   10.30626873178008
H         3.91468651815413    3.55475589906044   11.16146732864673
H         4.73129897395778    3.59122707006267    9.58452708558145
H         5.19599688164860    2.38136734832966   10.79205591596348
H         4.22718680201391    1.79202902860641    7.96520119681371
H         3.08202591442918    0.52403842721674    8.45020912782726
H         4.70400375753225    0.58567869072978    9.17156611348425
H         0.44929563981670    4.54722490129908   10.34079393442544
H        -1.02102219420269    4.89808398457331   12.55194016883852
H        -0.25881129737171    3.06879115775513   14.36005498825982
H         1.68611633114996    1.58235529896075   13.27231634094927
H         1.05115796503944   -0.71422651765417   11.19972180195106
H        -1.45746262438742   -1.26894805898679   10.44160530457983
H        -2.21438759554034    0.57604471612833    8.64761627629197
H        -0.17634928478500    2.27748732146564    8.29170437678927

