37
CSD_code = DAVRAT | q = 0 | S = 0 | Stoichiometry = C17H16MnO2P | MND = 8
Mn        5.74593266331939    6.86432003721860    4.63864298275069
P         8.62648109573978   10.45996632706317    6.03468145668507
O         5.78127431070889    7.72947516794043    1.84150816854146
O         7.97812085653607    5.01915863146000    4.21058664314289
C         6.91484639528156    8.25353383902997    5.13796820768620
C         7.61777941884015    9.18918243196440    5.53916067592185
C         9.26102361716328   11.43266767601387    4.62611955191236
C        10.10596585911590    9.86560839484449    6.92811598138064
C         5.78802345796491    7.39253986413911    2.95154129003987
C         7.10728462338808    5.76768068082790    4.37324723485650
C         4.91241130962875    5.88245817875001    6.38601005375018
C         4.36984279115150    5.30724251525096    5.21041027146378
C         3.66486437543188    6.31122240003150    4.51919136871830
C         3.77471246066983    7.51451938028446    5.25826406311215
C         4.52881708467802    7.23914050213480    6.42046819354803
C         7.74730952080789   11.60068303787421    7.13418640901394
C         6.39901472653093   11.37564914218718    7.38245505079742
C         5.70200329085901   12.23232143768951    8.21498008297555
C         6.34895140299148   13.31147735068469    8.79597733424149
C         7.69340770438756   13.53782279517930    8.54515868821858
C         8.39683017391337   12.68486328108061    7.71452687384415
H         8.41209925086750   11.82990173367317    4.07133650656167
H         9.82344620468872   10.76156186896804    3.97778608651397
H         9.89778333658536   12.24816892362400    4.96541909675902
H         9.78231599187363    9.33155561725617    7.82041314387864
H        10.76166699636417   10.68869443735280    7.20637528233005
H        10.63440105426928    9.17264427936877    6.27401818102115
H         5.37838226094481    5.33844615734806    7.19799643873454
H         4.36598358921617    4.25180365691938    4.97017835857325
H         3.03134164769708    6.15879621919740    3.65454576396502
H         3.21761090281095    8.42373041909220    5.06839290552870
H         4.67540699136172    7.91415385545408    7.25553024095485
H         5.91952616014757   10.52800932483143    6.91238277340519
H         4.65438893294885   12.06050739989549    8.41144126865166
H         5.80469923291071   13.98012122704256    9.44585535818838
H         8.19311395620609   14.38080902352030    8.99881812099426
H         9.44563635201688   12.86086278480034    7.51900989132788

