22
CSD_code = DAWBUB | q = -1 | S = 0 | Stoichiometry = C8H8ClS4W(1-) | MND = 4
W         3.90895677809184    2.97719766029303    4.15623408467445
S         5.78063520801158    3.76937540433981    4.99116063030122
S         3.09371891145931    4.29844801823771    2.59162648872473
S         2.38717038519952    2.65899691420768    5.71774935629313
S         4.30206821913580    0.86140797580717    3.14965093953623
Cl        0.48634741681043   -4.45052678573406   -1.04388133708809
C         2.50918679673568    0.62225816245330    2.70316294005113
H         1.96282506900160    0.52126076407478    3.64577416838536
H         2.19209985127549    1.52605929805872    2.17177295601294
C         2.38722982145004   -0.59420426454243    1.85201649480298
C         2.51695982180640   -0.50524312650587    0.47040204330089
H         2.67261684317262    0.46141181297015    0.01448428801765
C         2.45528638745748   -1.63917340018459   -0.31582482454590
H         2.55496368014986   -1.55720555525711   -1.38901661981300
C         2.27182038554283   -2.89019096652628    0.26248424111804
C         2.13564769104006   -2.97946215407953    1.64330263740671
H         1.98490973098712   -3.94622956957540    2.10281087354677
C         2.19686481988378   -1.84510463630299    2.42869813982754
H         2.10230149757059   -1.92483723140526    3.50156251101052
C         2.19797428719747   -4.11492875730283   -0.58601793173688
H         2.54270311556745   -5.00218132052733   -0.05605361103016
H         2.73931328245191   -3.99712824249956   -1.52389846879543

