119
CSD_code = DAWBIN | q = 0 | S = 0 | Stoichiometry = C60H53ClN2P2Pd | MND = 4
Pd        1.49353506681837    6.29714703646061   14.54452791890137
Cl        0.37350895958785    8.28017647180372   15.13442674159027
P         1.17746660191029    7.01760418440625   12.43217724818459
P         2.14752865774039    5.78932930934401   16.65352382868236
N        -0.30638522038050    4.42897100980767   14.30692683327731
N         5.63175581691407    6.24190568955339   13.27167497970788
C         2.44962050902525    4.68246640602506   13.85336944174846
C         1.74662131432533    3.50435292918367   13.56103483944869
C         2.40875354155239    2.39701615059632   13.02740251414088
C         3.76396034646168    2.42305316213744   12.72487232385571
C         4.45167812700431    3.59868955607495   12.98435434604883
C         3.81422206358846    4.70100524469679   13.55522844794720
C         0.32799074251746    3.42933634018765   13.82942055512049
C         4.55793621539373    5.90830174499551   13.85457994249157
C         4.43310565417434    1.18244195001422   12.15250159762779
C         4.29988761244457    0.03784138737699   13.16657916477190
C         3.74976433019098    0.79240135110757   10.83541136418053
C         5.92083881354229    1.40284917539489   11.86971471116883
C        -1.67309732350308    4.40788423751950   14.52908098449750
C        -2.58168839291291    3.79567733579284   13.66450668216601
C        -3.93743407376986    3.87936520309863   13.91878979316098
C        -4.40154007051344    4.55828248954442   15.03340881625043
C        -3.50263186158533    5.17644694867581   15.89069098123474
C        -2.14917058807234    5.11443773243843   15.63582161657320
C         6.28138849762573    7.41887901049649   13.59715382555876
C         6.52615516158559    7.79816967473190   14.91832971333645
C         7.20069921363147    8.97241598697861   15.19060193810317
C         7.62662811322603    9.78958121671401   14.15691497060547
C         7.39099595157286    9.41571332088005   12.84238065468990
C         6.73546828697953    8.23471189322103   12.55981685689231
C         2.07514342634868    6.10425120882221   11.13586059200292
C         3.32281051133260    6.50327735454381   10.67239008564288
C         4.02286747020714    5.70213216698756    9.78821774790525
C         3.48583086926950    4.50052118218693    9.36074879983060
C         2.24244859531423    4.09620193852686    9.82046148601219
C         1.54540416971842    4.88848414778642   10.71007130088647
C        -0.52478243292761    7.01905950574633   11.80156751018255
C        -0.79324490388083    7.04340910077458   10.43404899675821
C        -2.10217533915862    7.03985621391092    9.99033850120210
C        -3.14797610769108    7.01054933021035   10.90099243221441
C        -2.88412411076479    6.99244283218569   12.25970510207541
C        -1.57594045466169    6.99817732934946   12.71056610421184
C         1.75610683235157    8.72827612752583   12.20533526906646
C         1.07110750581326    9.68105734251756   11.46294894903770
C         1.58446266476235   10.96184827102041   11.34946544427570
C         2.77723746123647   11.29810628837210   11.96747169397712
C         3.46090782243696   10.35268314594519   12.71550885607744
C         2.94700906247545    9.07673632499975   12.83830570078956
C         3.13344797138401    4.26328019669193   16.74869649884187
C         2.45769099422398    3.05436470073592   16.59106006342224
C         3.15610172696458    1.86506778923471   16.53392877023213
C         4.53985028211950    1.87055602143625   16.61713797597349
C         5.21916463039066    3.06858863522151   16.75035033225051
C         4.52105372983057    4.26170933718281   16.81246080089473
C         0.95753699000322    5.61958715059926   18.02551730251437
C         1.02614550304221    4.61861164175774   18.98809188283197
C         0.10926777553055    4.59524936684301   20.02438336555149
C        -0.87300833243377    5.56753786473301   20.11238822520619
C        -0.93592597937258    6.57375732552538   19.16221258467987
C        -0.02432342153335    6.60350590425813   18.12301834173708
C         3.23740917292354    7.05832599759095   17.38145072955999
C         3.45513149566274    8.25028393375926   16.70054483129197
C         4.28021483620207    9.21970317218488   17.24378719147621
C         4.88843438695756    9.00242411638794   18.46808913477965
C         4.66097547943146    7.82095314561125   19.15849606806297
C         3.83451216659202    6.85190970136081   18.62263100849999
H         1.82920505033797    1.50205930117598   12.84552393821098
H         5.50222124670824    3.70399627047997   12.77070869985805
H        -0.16823785368917    2.47080503060132   13.62812393105493
H         4.08280488321238    6.56052928068295   14.62196544237362
H         3.25747779734679   -0.20471418320280   13.35479914960434
H         4.79616751560070   -0.85572201500327   12.79332019689720
H         4.75868996558853    0.32286532789116   14.11056248400075
H         2.69397757306404    0.58151869614727   10.98236082569908
H         3.84069712377580    1.60269373952786   10.11621073689491
H         4.21897004878704   -0.09670901986765   10.41877030292569
H         6.35090997820300    0.49327889157181   11.45458667784514
H         6.06470617776182    2.20487767514351   11.14976526455461
H         6.45959523831573    1.64449844013666   12.78277716905453
H        -2.22448520977126    3.29261230017660   12.77669337866769
H        -4.63793036836574    3.41456763913058   13.23955972357213
H        -5.46273545406169    4.61815028541273   15.22568539996420
H        -3.86200436202777    5.71901691641416   16.75283144833309
H        -1.43052226252261    5.60731354249750   16.27749467184192
H         6.20191973457472    7.15575899030393   15.72518292842380
H         7.38845250272956    9.25276311480501   16.21725192198706
H         8.14610757713668   10.71146820078525   14.37323284413664
H         7.72496153568032   10.04966340924924   12.03352284068151
H         6.54179007043997    7.93524237250413   11.54090751810439
H         3.74573781449959    7.44218337481848   11.00149049073862
H         4.99309260635091    6.01677574090296    9.43318566366595
H         4.03479913206385    3.87996414185419    8.66717276271556
H         1.81794115667957    3.16027176139972    9.48720649711189
H         0.57737225496332    4.57534951247956   11.08035609006099
H         0.02328985857462    7.05871094528598    9.72389945802978
H        -2.30876277276943    7.05940085666086    8.92968896028895
H        -4.16852909121500    7.00372572151833   10.54660400022402
H        -3.69533159558040    6.96946163648395   12.97219217024386
H        -1.36329291036471    6.99526986585845   13.77198997965835
H         0.13390165946197    9.42882411257742   10.98766163473594
H         1.04560567073511   11.70332291118313   10.77753371352699
H         3.16908797830727   12.30038808829707   11.87489313666511
H         4.38969860604273   10.60791264835439   13.20564315331476
H         3.46573229348330    8.33346847576186   13.43537327525371
H         1.37728008539668    3.06316354051861   16.51219926995788
H         2.62487372736918    0.93143684646888   16.41925468564366
H         5.08778843135642    0.94034431150627   16.57786931283351
H         6.29812979768655    3.07636009159308   16.80363290165692
H         5.05897128903363    5.19373546559218   16.91510482196473
H         1.79022937417212    3.85579973349136   18.93075103509310
H         0.16515063839226    3.81359967644319   20.76857919454243
H        -1.58603793162413    5.54140962000874   20.92347863138747
H        -1.69654980744485    7.33760906278179   19.22975877432674
H        -0.06621269991875    7.38792409699522   17.37649108754316
H         2.95240508353909    8.42851629797642   15.75370361517174
H         4.44635885862675   10.14343675062757   16.70960719126662
H         5.53498635454093    9.75634940514669   18.89318557070244
H         5.12804550438395    7.65758047344084   20.11905453618321
H         3.64946560752442    5.93153066557386   19.16032757884265

