38
CSD_code = DAWFOX | q = 0 | S = 0 | Stoichiometry = C13H15CuF6O2Si | MND = 4
Cu        0.53064087507367    8.58867340107345    0.44179024991814
Si        2.38066558525925    7.00992167196311   -1.94467314262521
O         1.67858796544695    7.48408108915185    1.58619859671317
O        -0.51860664790875    9.45473868424405    1.80823359756368
F         1.77726120544415    5.72934246597985    4.34670812039218
F         3.35351599230616    6.01289013759365    2.90799703238431
F         3.15366029811752    7.36754994248750    4.56876288061947
F        -0.45657430232381   10.66317269603712    4.87478989973773
F        -2.07146098589887   10.72350115853088    3.45275522746091
F        -1.87894732709519    9.05177061329200    4.79505938317004
C         1.03737072085773    8.23480911110178   -1.44569871886114
C         0.12282464214183    9.07508049066570   -1.48579904307203
C        -0.84692795103625    9.99367426609550   -1.98259366093733
C        -1.65846365177675   10.67461467107762   -1.17622535158497
H        -1.61422262531293   10.56043777422777   -0.10642851787142
H        -2.38577396998287   11.36470029112937   -1.56894431833657
C        -0.86134073740459   10.11347616818868   -3.48028040702317
H        -1.61896992821781   10.82506368760966   -3.79642402339274
H        -1.06915644027555    9.14456538697623   -3.93111838776292
H         0.11222552544777   10.44347119065938   -3.83881478827243
C         1.85000196052901    5.29140976360340   -1.32699433144972
H         1.77719391684155    5.29153908826543   -0.24367146598125
H         2.56700323172716    4.52629031848448   -1.60949812713405
H         0.88229487039743    5.00065515717378   -1.72538722442051
C         2.43057581119969    7.10909039103725   -3.84936989871716
H         3.17887344553614    6.43453752170992   -4.25352958127537
H         2.67460302114386    8.11103239974104   -4.18828026991599
H         1.47435411463058    6.83801710109562   -4.28581225748946
C         4.01351575977225    7.57116946827265   -1.14901492353869
H         3.92768098438829    7.54738552397503   -0.06690320904192
H         4.27722820077605    8.58380755413235   -1.44007203030296
H         4.83779094123760    6.92182626958530   -1.42893986133563
C         1.52821921170271    7.55158790327643    2.82304021631917
C         0.63133469605121    8.31191559104650    3.57283769863312
H         0.65980262627385    8.22324576036413    4.64686929039735
C        -0.29962487339245    9.18192740921179    3.00763518052589
C         2.46523000418342    6.65711043615634    3.66288045279685
C        -1.18828616586613    9.91551744478265    4.03421571371042

