41
CSD_code = DAWGIR | q = 1 | S = 0 | Stoichiometry = C10H21CoN5O4(1+) | MND = 6
Co        5.68710926729978    1.77336907035011    3.46682223552297
O         6.15401515875519    0.91452707832382    5.04542399973346
O         5.79390152343121    1.17302941797731    7.23607758112139
O         3.91452498322720    1.37289238599674    3.79494447290282
O         2.39487632424017    1.80343732010613    5.37034483244139
N         7.63114827077132    2.31846325883003    3.39372583579470
N         5.37244604104179    3.34079374815878    4.56126897051555
N         5.20183448661647    2.54722189981253    1.69023330613370
N         5.85342931791880    0.06780200322315    2.49900032799927
N         4.24541494136714    3.45333040691369    6.72339531220802
C         7.71992430603488    3.70387467115380    3.90171729212489
C         6.68017069584894    3.87275296510881    5.00845908957571
C         4.47334755854624    4.40978084890190    4.07570253786400
C         4.63593542870054    4.77830420400495    2.60271905896710
C         4.21768802650796    3.63974186981816    1.67895347909915
C         4.75823393944352    1.41626369644503    0.85401831329370
C         5.74642310577843    0.27344597087780    1.04931498010727
C         5.60864452646032    1.44918169512559    6.08145348757553
C         4.65275529743901    2.60044279362605    5.66968410210400
C         3.50752813860168    1.85627834449302    4.92064265633483
H         8.02954116243711    1.70250053596891    4.10872807185100
H         8.22912983625443    2.22056123904452    2.57359290730359
H         7.52389626685686    4.39276756018971    3.07778800989372
H         8.71730636176430    3.92379908116494    4.29610805965043
H         6.59387463253605    4.92214517728441    5.29717966081988
H         7.00293070422088    3.31488201177938    5.89032939920255
H         4.61563683387236    5.29467147244896    4.70083283922936
H         3.44303477159231    4.08046582579464    4.22260798698318
H         5.65323457868603    5.09988234637727    2.37695157861881
H         3.97941790378234    5.62806778622515    2.41253875922748
H         4.09741758210566    4.01646675485881    0.65683046283328
H         3.25950813971114    3.23480846404959    2.01063170604376
H         6.05136126804370    2.92063044568494    1.26027790327174
H         4.68127433222102    1.70528274875889   -0.19879305001376
H         3.77387696222889    1.10632599213252    1.21159603991950
H         6.72850464758079    0.54341519733842    0.65014369515075
H         5.39926600313058   -0.62521203902725    0.53135523557214
H         3.23558491787976    3.41737256837267    6.84090243231767
H         4.67154935737369    3.15989924395597    7.59971267531000
H         5.02017066784694   -0.42904678513178    2.82686781805192
H         6.64313173184451   -0.53101927651818    2.73961593734344

