54
CSD_code = DAWHUF | q = 0 | S = 0 | Stoichiometry = C24H24Br2NNiOP | MND = 4
Ni        7.30299609536902    3.82293082443660    7.79394696546314
Br        6.46898009191492    3.29968316701935    9.77525658538721
Br        8.93617394506881    3.99764924966913    6.33203870373284
N         5.45862816715747    5.17175965619291    7.05260332004538
O         3.44764252995101    6.01295916197604    7.52530469077012
P         6.08829953805442    2.67296046498187    6.54004024750959
C         5.58381053910841    3.15768407369369    4.85292645351085
C         4.40415155838819    2.60132200495976    4.35891081567051
H         3.83052349635406    1.91727187159311    4.96843697528792
C         3.96710845403804    2.91417706448483    3.08563918509102
H         3.05237591899740    2.47666398950528    2.71336765952577
C         4.69746963977639    3.78353820675212    2.29093045178543
H         4.35007622051561    4.03033484705818    1.29874323997745
C         5.87479070960022    4.32763785723853    2.77307871345241
H         6.45575439938405    4.99901642409764    2.15878967242001
C         6.31885891779653    4.01526526528536    4.04710692983918
H         7.24282029198357    4.43721508355607    4.40658545001900
C         6.74801105523269    0.98717134822113    6.34692921488151
C         6.90011479339954    0.39051138865619    5.10017967096208
H         6.58227427518804    0.91033690856315    4.20809989049343
C         7.46691777294859   -0.86849179711642    5.00678841405221
H         7.58472516413953   -1.32865458732742    4.03693130924961
C         7.89180506483080   -1.53114265454775    6.14640307897094
H         8.34123270970518   -2.50955922901285    6.06523005160700
C         7.75584894707903   -0.93232059805703    7.38906117878260
H         8.09818422212174   -1.43997321715503    8.27832125259330
C         7.19469833074278    0.32622687540018    7.49028113886763
H         7.10310226046664    0.80299652408806    8.45843548268397
C         4.44729725555217    2.47579496657932    7.30394566827064
C         3.93419934670377    1.22716582799177    7.61872122481521
H         4.52731015778222    0.34365854971315    7.42593702701647
C         2.67223105339360    1.08788173525702    8.18677291173267
C         1.91535258554945    2.22974591342650    8.42701376702627
H         0.93352924917766    2.13551499184602    8.86643651781494
C         2.41248255151731    3.48193748309528    8.12713534821195
H         1.83492675140333    4.36961470828542    8.33321957504249
C         3.68147391375160    3.62087493082614    7.57277162992850
C         4.23772131886950    4.94314847309643    7.35873210751009
C         4.25299765805692    7.16652258432740    7.30144121955963
H         4.20629507768151    7.80185322931700    8.18906621386372
H         3.84788612289233    7.71056896298983    6.44330822475317
C         5.67805234560392    6.61385892155005    7.03303190525780
C         6.23443891635874    7.05111314762522    5.68101133671211
H         7.21921300320014    6.61605667828470    5.53205938041712
H         6.32158374901679    8.13439282007288    5.65270372426441
H         5.58172641229773    6.72130716547351    4.87515841722709
C         6.66013022577328    6.95508868254735    8.15633150100286
H         6.22305390599547    6.73409806196867    9.12958107256198
H         6.94125728789550    8.00443577595881    8.11895729749871
H         7.56766779876616    6.35241424284384    8.03415435030339
C         2.16001950433463   -0.26899842060404    8.54997105095268
H         1.07851846456950   -0.26250815821424    8.65841772320412
H         2.59632610647525   -0.57916677181785    9.49955699344067
H         2.44053412803306   -1.00454467662164    7.79899706895389

