143
CSD_code = DAWJUH | q = 0 | S = 0 | Stoichiometry = C64H70Cl2N2O2P2Zr | MND = 6
Zr       -2.47748936854236    1.61340879063326    4.61464907534425
Cl       -1.06233832874091    3.09816727352739    5.86356741016040
P         0.27496715798063    0.09167482864339    5.33118980445644
O        -1.15775146186061    1.74746178141355    3.23068574700758
N        -1.31970779612199    0.00791557551646    5.52642357646415
C         0.12383985870349    2.00855876292783    3.27098980460971
C         0.94026054083804    1.28579936239510    4.15811493823060
C         2.32695892723472    1.44261884975184    4.19057000667551
H         2.88579526487726    0.85266555203482    4.90188988549485
C         2.95013569532763    2.33675480388106    3.34861455310746
C         2.12933652142672    3.10745911315376    2.51842505001246
H         2.60664127791972    3.84401527179537    1.89535818686092
C         0.75515208608168    2.99583891048651    2.46255981815549
C        -0.09148618889736    3.96377177559994    1.64516407653629
C        -0.88191789074670    4.82443624586981    2.64273082249487
H        -1.50448131219288    4.19985880504217    3.28731617307981
H        -1.53142734871012    5.51632633813998    2.11081626837759
H        -0.20095252048651    5.39137713651053    3.27555052165292
C        -1.05830597604782    3.20590766169962    0.72712030252974
H        -0.51307660099880    2.50844538947083    0.09295863916966
H        -1.59561840893576    3.90952573061536    0.09454254943788
H        -1.78639242444701    2.64914280884483    1.31155456058254
C         0.75038513729666    4.89942023065912    0.76917372581749
H         1.39386355780281    5.53700113948735    1.37081584033512
H         0.08391159281006    5.54565861926053    0.20191797700900
H         1.35671421971251    4.33703431781677    0.06186576368531
C         4.45671218170771    2.54311412736316    3.32267434541105
C         4.77187728548857    3.98613090907082    3.73917575784388
H         4.37062647070380    4.18450688913953    4.73036396318012
H         4.33602696117261    4.70067422738994    3.04698759042305
H         5.84813573027334    4.14514834727786    3.76131632626732
C         5.18854859502332    1.59838875586139    4.28054076262331
H         6.26075523463862    1.77131219624025    4.21160094963332
H         4.99887488458194    0.55774513173562    4.02653806669758
H         4.88541554465291    1.77323333070673    5.31022882496461
C         4.97937805293316    2.28509983073719    1.90263112145421
H         4.53132476782083    2.96742851633865    1.18613368631363
H         4.74677503383886    1.26768495234720    1.59491778154836
H         6.05891411434111    2.41744135769187    1.86976771452020
C         0.77181125606527   -1.55968888474912    4.69779444185329
C         0.12154503353976   -2.67277847698860    5.22582283291401
H        -0.63904812048750   -2.53101777599962    5.98345133188356
C         0.42953209456524   -3.94369955210567    4.77695040903855
H        -0.07761096752814   -4.80147999946233    5.19437656266629
C         1.38645748470302   -4.11429522014048    3.78895428385321
H         1.62708965031798   -5.10588594824589    3.43511146208479
C         2.02567872940713   -3.01074815030554    3.24949637422728
H         2.76293551660788   -3.14168928258701    2.47073237692901
C         1.71978541328951   -1.73705364222247    3.69908414461386
H         2.20979582500655   -0.87706837342609    3.26688691395977
C         1.25772099886479    0.29738710265928    6.85818092472621
C         1.59867543103941    1.57910208242497    7.28328092808065
H         1.28451504457734    2.43438288637216    6.70153708815855
C         2.30964087169283    1.74525133696054    8.45751432998741
H         2.57211324256175    2.73948249987023    8.78633020447033
C         2.68005151293137    0.64292485235482    9.21240026744455
H         3.23473901458950    0.77660030684296   10.12936551481224
C         2.33661068938969   -0.63078437971244    8.79215928612611
H         2.62224848921380   -1.49128300324731    9.37919382838896
C         1.62677868253907   -0.80599437883917    7.61649247482266
H         1.36764810921622   -1.80171571402332    7.28580712425473
C        -1.99311252505404   -0.26686166668602    6.72797538674765
C        -1.70480102175777    0.36485492504671    7.93906721141357
H        -0.91644191324943    1.10416844523173    7.98032446744462
C        -2.44839047639543    0.07449533664664    9.06865816070096
H        -2.21365801527941    0.57505503507661    9.99656311284406
C        -3.49550445412834   -0.83023306236705    9.01383654321755
H        -4.07826108562375   -1.04265350173124    9.89752780578828
C        -3.79590880772787   -1.45319174619067    7.81328305979854
H        -4.61371727175806   -2.15769665725314    7.75337097268778
C        -3.04791211455422   -1.18542944571915    6.68302491300030
H        -3.26729371495358   -1.68304565645768    5.74707116795095
Cl       -3.89648275438739    3.09002935394480    3.36211462117322
P        -5.22813375928545    0.09277156738940    3.89422698488193
O        -3.79766488790389    1.74635182796055    5.99828367836374
N        -3.63315579361264    0.00700497294480    3.70090517913471
C        -5.07921118621049    2.00755001368443    5.95682991467659
C        -5.89448950887045    1.28587351449933    5.06784563053765
C        -7.28111089956033    1.44266569065146    5.03376926625243
H        -7.83911324062213    0.85326815347850    4.32133170407334
C        -7.90526471812068    2.33600242440788    5.87585827634432
C        -7.08540149433423    3.10643863296247    6.70717256727346
H        -7.56340395088878    3.84252306330584    7.33022412530481
C        -5.71126269425794    2.99506623714877    6.76430137049609
C        -4.86557810260319    3.96356339681655    7.58197983157671
C        -4.07379272178550    4.82364166206983    6.58495618915982
H        -3.45123608899208    4.19839419651983    5.94106459612092
H        -3.42402759870351    5.51514889890480    7.11708050657113
H        -4.75383244420479    5.39086222993539    5.95140912528041
C        -3.90010287073255    3.20629328835278    8.50186360915587
H        -4.44615722878664    2.50942408370358    9.13595984203456
H        -3.36344363835381    3.91034894189014    9.13450386649692
H        -3.17146583609942    2.64898434468355    7.91866482532542
C        -5.70848735466988    4.90008417831485    8.45600000603426
H        -6.35144132386717    5.53687306569038    7.85295038160745
H        -5.04280391439672    5.54704308714984    9.02338051926168
H        -6.31552320969606    4.33830788187095    9.16318222192110
C        -9.41186395386886    2.54210134517382    5.90072305879358
C        -9.72670911443931    3.98504559568363    5.48376227122948
H        -9.32473417136979    4.18317756682422    4.49281677992399
H        -9.29118208865201    4.69963861226307    6.17610879758395
H       -10.80293449950802    4.14418621597017    5.46088765416278
C       -10.14287340759966    1.59710249412042    4.94251925350415
H       -11.21517782905598    1.76969154317037    5.01081128475288
H        -9.95297120539592    0.55653224001038    5.19666915816829
H        -9.83918580537696    1.77199863731736    3.91300701106276
C        -9.93554841733661    2.28421850958009    7.32041614187316
H        -9.48811718850401    2.96672403446931    8.03712535020388
H        -9.70298970060240    1.26689573651632    7.62847238886345
H       -11.01512613987382    2.41640305599585    7.35250880594203
C        -5.72602750108868   -1.55852900009955    4.52705846946264
C        -5.07629282150967   -2.67186889795702    3.99889097382085
H        -4.31586677817681   -2.53045640616158    3.24104316941310
C        -5.38467562243379   -3.94268577970014    4.44780400403289
H        -4.87798492983560   -4.80064689358875    4.03019354830371
C        -6.34140344950926   -4.11297419249997    5.43604503747742
H        -6.58235198984619   -5.10448320547836    5.78990792542783
C        -6.98008051055593   -3.00919053581252    5.97565676211603
H        -7.71730093125239   -3.13983336529740    6.75450319804647
C        -6.67382029669924   -1.73561430454091    5.52600268377009
H        -7.16357788546939   -0.87549846889446    5.95822784935568
C        -6.21004305096559    0.29974587773836    2.36671631601474
C        -6.54767905894637    1.58201068886916    1.94062867618567
H        -6.23117579141106    2.43701326225365    2.52159789785181
C        -7.25777944045696    1.74916092248429    0.76598724260357
H        -7.51723096010781    2.74389470728638    0.43629042132254
C        -7.63112619225562    0.64726048663820    0.01192003483529
H        -8.18506393624607    0.78170567483838   -0.90538576725473
C        -7.29159879628863   -0.62704643148603    0.43353102477935
H        -7.57989360547029   -1.48727960701577   -0.15259502558872
C        -6.58221837487529   -0.80323441674771    1.60932823971731
H        -6.32595725471067   -1.79941522925206    1.94086469002088
C        -2.95876743307287   -0.26910315730510    2.50024307157742
C        -3.24597068945749    0.36084483712397    1.28799137177443
H        -4.03433463182652    1.10005390978737    1.24497790562179
C        -2.50155428079820    0.06880327881881    0.15937946066074
H        -2.73577414938133    0.56783467535516   -0.76948009404566
C        -1.45456723481926   -0.83594024050555    0.21621346908554
H        -0.87125543225186   -1.04980612008833   -0.66676399409721
C        -1.15530040690091   -1.45732122111776    1.41786595941588
H        -0.33785452893665   -2.16211541733985    1.47932924163213
C        -1.90419621071137   -1.18787870013625    2.54712279625533
H        -1.68586875076656   -1.68460096328420    3.48374877009712

