55
CSD_code = DAWJAN | q = 0 | S = 0 | Stoichiometry = C24H24Br2NNiO2P | MND = 4
Ni        1.87469250660608    3.21726146393586    3.08516385474781
Br        1.47294762657361    5.34144603414635    2.61610946931837
Br        2.70623531613203    1.19863318017074    2.81122135100558
P        -0.11005139587818    2.56977110338255    3.12066850056814
O         0.29670588095842    4.36016212104925    7.09384890036037
O        -3.70327914318839    6.86285204338582    5.19926378481092
N         1.10831519398521    3.21950694874407    5.35685188583980
C        -0.68679378851644    2.23863211397873    1.42821739964733
C         0.13795359408117    2.59313009555232    0.36764453530714
H         1.10169091994160    3.06094965130101    0.56742439484074
C        -0.25734123625635    2.34329979619215   -0.93412683833917
H         0.38569148344727    2.61922012934836   -1.75587049024375
C        -1.47672889841079    1.73364883990739   -1.17633474678296
H        -1.78794291583612    1.53498514334685   -2.19096500263323
C        -2.29787153190742    1.36799856236924   -0.11980494912518
H        -3.24460827357280    0.88532623025455   -0.31307017610040
C        -1.90735959177984    1.61408372122247    1.18279827217986
H        -2.53831988393780    1.32238992648003    2.01181558709324
C        -0.61432418189395    1.05759095147408    4.00326302565393
C        -0.30665184784362   -0.17167788634312    3.42668320902131
H         0.22958435240556   -0.20735507514040    2.48957953310659
C        -0.66845902475197   -1.34640762609310    4.05778370834736
H        -0.41524559096119   -2.29401160526685    3.60758540433813
C        -1.34333505258645   -1.30610469049919    5.26703643208147
H        -1.61802324368385   -2.22325534702975    5.76624941719060
C        -1.66839272522713   -0.08555502100036    5.83457959063768
H        -2.20427450398244   -0.04896852519341    6.77209745946219
C        -1.30720360479726    1.09434451198180    5.20760112606016
H        -1.57090595927121    2.04080299479031    5.65678831859316
C        -1.21973868977996    3.84498490600991    3.78550897782287
C        -2.29105849975148    4.33549219867775    3.04455333503739
H        -2.48852360259270    3.93895275777661    2.06012033713168
C        -3.09687479246441    5.33416057449622    3.54430557727917
H        -3.92516374496086    5.71689328997048    2.96963019621526
C        -2.85241149255704    5.89137949157929    4.80426458224771
C        -1.77541293369702    5.42421180882231    5.54848420450048
H        -1.52993324622478    5.83380989639512    6.51486565817971
C        -0.96242628376070    4.41704927052173    5.03927730290947
C         0.18652633366401    3.97588566955633    5.81327883183901
C         1.49047489814494    3.77072283909747    7.60315659733003
H         1.22593651908533    3.12702328934319    8.44646263170680
H         2.15301370538263    4.56799352291516    7.94942897237333
C         2.08550310057038    2.97418197379484    6.40979194259957
C         2.16446053579624    1.47350769401057    6.68366587822309
H         1.18536696575125    1.08449705369756    6.95776159706029
H         2.86729339968480    1.27969146280940    7.48981484187714
H         2.49883124976868    0.95310024281849    5.78959783581598
C         3.43937613778373    3.52265814003404    5.95922196545927
H         3.72463648408975    3.05132448482112    5.01503493518874
H         4.20737764307977    3.30079633875689    6.69585269651457
H         3.38585053710939    4.60103964960225    5.81118689841041
C        -3.46990670273726    7.51219288648118    6.42900908478794
H        -3.53251202587377    6.81438573719804    7.26967812860133
H        -4.25792091580869    8.25755417910361    6.52028551633737
H        -2.49626905957143    8.01051085526411    6.43785851750449

