94
CSD_code = DAWKES | q = 0 | S = 0 | Stoichiometry = C35H53FeN3Si2 | MND = 5
Fe        8.05544101973481   14.30167562700206    2.27909044318593
Si       10.82378179910329   12.79293478049579    2.37817622520122
Si        5.71378183912926   13.79628625638348    4.95778897648630
N         7.05708387537712   13.04642706569842    0.99390731246690
N         6.59847243812480   15.26850216545133    1.95600233277990
N         8.65794242423314   16.12635166879332    3.00469966832966
C         5.54833301420390   14.75525671412120    1.23568041641820
C         4.37694605978123   15.47590266570479    1.02559787156840
H         3.56753903563399   15.03079480535044    0.46915333081116
C         4.26136029505370   16.76335879239954    1.52531804650738
H         3.35808610297639   17.33272617747500    1.37196995417175
C         5.33427751649757   17.31317656033336    2.20901692669275
H         5.28240587841569   18.32146887775938    2.58784217933344
C         6.48879831464794   16.56145795657646    2.40364342424331
C         7.69012385295601   17.00880382164750    3.01602544845437
C         5.84912810294796   13.46835554156978    0.71408713432130
C         7.80708984328725   18.39638911675407    3.57569962805429
H         8.79987148171982   18.56636794869822    3.98283554266508
H         7.07261459849637   18.53884885765244    4.36727386604750
H         7.61605361178992   19.13512065316472    2.79839230896190
C         4.85403490779581   12.71431042630605   -0.11897660843123
H         5.27266487576592   11.77221076362230   -0.46171698621248
H         4.56197228613168   13.30455507035158   -0.98646713731562
H         3.95986399417621   12.50832911925903    0.46814710476980
C         7.51455998528337   11.87050648203820    0.37558895277024
C         7.30708864689764   10.60638847221094    0.93743288594260
C         7.85437183900702    9.49103798765450    0.32024249528078
H         7.69537780096976    8.51970639532975    0.76786131935060
C         8.58722789306516    9.59007998165026   -0.85222761251557
C         8.70834196948944   10.83938616749453   -1.44245517575085
H         9.22307837311836   10.93202988260006   -2.38880362760378
C         8.16326834426119   11.97430612926197   -0.86441581291252
C         6.45460775041965   10.41847078806037    2.15788636910199
H         7.03239537895256    9.97853175503428    2.96958957309161
H         5.63592412168159    9.73479371440985    1.93100524634926
H         6.03899422921345   11.36381888954389    2.49126350769722
C         9.21637194737535    8.37792187018103   -1.47001712241065
H        10.19311494284033    8.19633692573043   -1.01996156607073
H         9.35811008410370    8.51501932053268   -2.53948135197684
H         8.60259229060333    7.49498182044268   -1.30491852652241
C         8.19231303573977   13.27363546187088   -1.61838784611842
H         9.14394676763327   13.40255268814699   -2.12988930196406
H         8.02130672524636   14.11952659221387   -0.95611932491465
H         7.40551254478043   13.26780999618636   -2.37499262461079
C         9.93567557106896   16.53075826386710    3.42787978807458
C        10.81718240482549   17.07143449970939    2.47905783626604
C        12.11218502570858   17.38525950343943    2.85729688125183
H        12.79061478237593   17.78315308916308    2.11531098319029
C        12.54995384412195   17.22608699828623    4.16418680872613
C        11.63613928619948   16.78678022204335    5.10881102912158
H        11.93616231894153   16.70964672954265    6.14469365645944
C        10.33548869219382   16.44704485407385    4.76555075933830
C        10.35432718093806   17.40241160859319    1.08840337298384
H         9.44927361060751   16.85626267180226    0.83187051407030
H        11.12994284283766   17.17734197192172    0.35919155512997
H        10.13860033004009   18.47059666130643    1.02587862081174
C        13.96719228110349   17.53270289574689    4.54394284042194
H        14.03553112011375   17.82314835065411    5.58982496703394
H        14.37075620159792   18.33283567675189    3.92728038866325
H        14.58974695386118   16.64905632582347    4.39792261534161
C         9.37443645493223   16.05807050405658    5.85037212050017
H         9.29558366838940   16.86707149885260    6.57750294828661
H         9.72628390426289   15.17473691386568    6.38162673064151
H         8.38934968622880   15.85651676825536    5.44253864500120
C         9.79354138138119   14.00297875446302    1.35110809451770
H         9.69483498931495   13.56252245711490    0.36451516382734
H        10.39238306388490   14.90124668980384    1.24228205516134
C        11.34303566537960   13.40694711755427    4.11185853164592
H        11.93200009346566   14.31463804443322    4.05009533009716
H        11.94205636707253   12.65900232233180    4.62326817313284
H        10.47902939547721   13.61594064898894    4.73174343790970
C        12.46380747454607   12.50143324951884    1.41726506211398
H        12.27367848522395   12.07470922019913    0.43725367878932
H        13.12188123134143   11.82083092225318    1.94871917227366
H        13.00421277890876   13.43158245698985    1.27082658353659
C        10.07042417075777   11.05733397789331    2.64767729678934
H         9.12306878162618   11.11460518856158    3.17108103270804
H        10.73635785883098   10.43600989371831    3.23959125366367
H         9.89808193906291   10.55061974349580    1.70536848331380
C         7.29728199186534   13.59250320141502    3.96458174137067
H         7.41095599766445   12.53292894386865    3.71472607976523
H         8.14892994695970   13.86502447728355    4.59684119947650
C         5.35143646411199   15.59457757504712    5.49601573969242
H         6.18534697002289   16.03311678198901    6.03436870802872
H         4.48767832565714   15.63096000969439    6.15394954757974
H         5.13950583194007   16.22741182176634    4.64148980245035
C         4.16713539458402   13.16091215036724    4.03063089445798
H         4.02236762799568   13.69239154101877    3.09653173972324
H         3.27238789715409   13.30138357012382    4.63035119721244
H         4.24023844362141   12.10208995965070    3.80339676876507
C         5.86186810972690   12.76278702387506    6.56865745040101
H         6.03442966354755   11.71328427210812    6.35078744682391
H         4.95848256370309   12.82765733010570    7.16739830253351
H         6.68706309607996   13.10750189360652    7.18428910503817

