153
CSD_code = DAWLIX | q = 0 | S = 0 | Stoichiometry = C63H84ClNO3Ti | MND = 5
Ti        0.33235339439940   18.80818919042784    3.96208273396725
Cl        2.43902416076294   19.45843820631136    3.86309936804809
N        -1.87637347986999   18.11756593011113    4.07628299316371
C        -2.02688824448213   17.14120984232543    5.16819899695931
H        -3.09174225838296   16.87622011394282    5.28685277489626
H        -1.68863893851139   17.62217340631206    6.09816697287865
C        -1.22521837900182   15.89311383670733    4.92098901848196
C        -1.80949318032388   14.64167174938426    4.95634236982697
H        -2.86204648894752   14.57362914584055    5.19037709926704
C        -1.06593048097440   13.49647869607877    4.70368700594605
C         0.27129401788760   13.66083071680328    4.36457308494048
H         0.84786391102540   12.78423512674034    4.13620373081016
C         0.90280758846492   14.89700833828720    4.29997923889253
C         0.14134824762449   16.03641924441271    4.62531511361957
O         0.64662887223581   17.26537539903575    4.65306545494274
C        -1.73884837679898   12.13392472665107    4.78267562318136
C        -2.87941486476043   12.07740860564267    3.75638190676840
H        -3.36140556224228   11.10246956288271    3.78406604703514
H        -2.49064985262241   12.24235932960005    2.75374366391770
H        -3.63217425993914   12.83413838420198    3.95893958731397
C        -2.30287727399480   11.93764342938406    6.19693366868451
H        -3.03998211815440   12.69788772519861    6.43935460018256
H        -1.50163796208395   11.99480495646353    6.93036176025705
H        -2.77894273361832   10.96284740916130    6.27975050821168
C        -0.77866207524394   10.97784075662013    4.49096611774871
H        -1.31198673143883   10.03356217935102    4.58112319653934
H         0.04579756735729   10.96658930048072    5.19967304228615
H        -0.38164972471867   11.04243166379507    3.48074861067438
C         2.34855205192327   15.04441264387064    3.83981304230043
C         3.18735145688701   15.76925963849987    4.90530452642123
H         3.17773354793108   15.18442373592515    5.82974725071460
H         2.75632024734906   16.75155988263029    5.11945146751419
C         2.37342713455521   15.86531237528737    2.53600501615943
H         1.91293305759395   16.85200759180624    2.69325338902803
H         1.79234862612063   15.34100671283466    1.76984030243324
C         3.00931999273073   13.68793305985092    3.55314076473459
H         3.01422333975891   13.07972505391358    4.46085369034896
H         2.44935694677042   13.15711224987284    2.77947728043585
C         4.62268814015424   15.95498991381741    4.41460562801633
H         5.19488571064591   16.48206290294371    5.18588028149780
C         4.62374625654547   16.78249040411409    3.13063263842923
H         5.64973737394010   16.92489202713770    2.78330603374999
H         4.19198972962223   17.76548344237162    3.32207875526726
C         3.81389367431821   16.05511142047516    2.05892846563689
H         3.80646737458447   16.65248188250030    1.14006166951264
C         4.44832953908523   14.69364216430921    1.78178700524364
H         3.88756974504914   14.16636182710374    1.00553894081396
H         5.47192189637340   14.82517453190657    1.42393451968751
C         4.44718966002070   13.87499647782067    3.07051573583904
H         4.88686971321414   12.88856200934379    2.87729144562636
C         5.25909026415045   14.59378574900417    4.14431109199072
H         6.29086174327108   14.72239094114474    3.80933775821959
H         5.27597219030354   13.99657612904221    5.05957946728431
C        -2.74773055841655   19.27569295145474    4.33501190033434
H        -3.80469117966491   18.95887912925419    4.31082897606586
H        -2.59081952841425   20.00240824446578    3.52419962535471
C        -2.45047357301770   19.92763464339172    5.65780606418802
C        -3.45156080864544   20.15368575435217    6.58795699564243
H        -4.45615698300060   19.85403457325968    6.33481718416816
C        -3.16781744879117   20.75486784757984    7.80302999679729
C        -1.83983499368839   21.08385563121237    8.06532820676176
H        -1.61541332294429   21.53061088584683    9.01790844226357
C        -0.79950188222304   20.86636566013903    7.17556396263798
C        -1.12368313900494   20.29765146556321    5.92630535637430
O        -0.22140635419977   20.07957365592512    4.97534400062805
C        -4.22990748634629   21.05295430391492    8.85073261679400
C        -5.63169260730361   20.63172464576423    8.40114405969782
H        -5.68096431673511   19.55948110651132    8.22613258691131
H        -5.92518684079361   21.15647431680057    7.49503203770564
H        -6.35104943564933   20.87736959962478    9.17967466137968
C        -3.89522112850249   20.29438116125380   10.14269978387819
H        -4.65817681941448   20.48117477624414   10.89545836455926
H        -2.93615685711562   20.60462221715247   10.54723963793166
H        -3.85388639526082   19.22428478988525    9.95055370907855
C        -4.25182337434066   22.56296408027719    9.12572329948343
H        -5.02044880572066   22.80006374846686    9.85831723015852
H        -4.46737154008246   23.10764943076950    8.20906408994497
H        -3.29692520070582   22.90930608078893    9.51029703864845
C         0.65084389226462   21.17655403900842    7.52503838965568
C         0.78876641235976   21.82275056779260    8.91128284060417
H         0.38389907803814   21.15454428338204    9.67530171065742
H         0.23208516413343   22.76274418533721    8.93760534644872
C         1.45532064427481   19.86279383912339    7.53456918977394
H         1.38890665845248   19.36371776153182    6.55640645887444
H         1.03235174968546   19.18780349433364    8.28612847495793
C         1.26366286045553   22.13301482370802    6.48838964554169
H         0.69771765475708   23.06918302772835    6.48430442124812
H         1.20256055707596   21.69334286546556    5.48871935824988
C         2.25555144884283   22.10160544917796    9.23686322777989
H         2.31628113949389   22.56262465253898   10.23058859141169
C         3.03409400507239   20.78824854989945    9.23680783987905
H         4.08279950880681   20.97621797524124    9.47749362164291
H         2.63089142043764   20.11660180125786    9.99927280212554
C         2.92351531054131   20.14617720770979    7.85526065633360
H         3.47749787082932   19.20071153302732    7.84277722116475
C         3.51022712235554   21.09154709272889    6.80851587511625
H         3.45476145952476   20.63412690392433    5.82000997179038
H         4.56156982594364   21.28387619782864    7.03473119318593
C         2.73045292114915   22.40494735644996    6.81916111606705
H         3.14510591902195   23.07885540962083    6.06146999139121
C         2.84019314534141   23.05334310484041    8.19697410416051
H         3.88646673580306   23.26403988886227    8.42973376634690
H         2.29597617858886   24.00113992525807    8.21261155038943
C        -2.26012375162919   17.49201971810470    2.79925519248844
H        -1.56897247195164   16.65731473118449    2.61099396390655
H        -3.28123652516330   17.08066532603063    2.87753811943120
C        -2.19924808324415   18.46848270401429    1.65654571293543
C        -3.28196696820706   18.67379024405323    0.82303204100896
H        -4.17760971862475   18.09424975689492    0.99384632308551
C        -3.22355685106999   19.59607508011598   -0.21356315049519
C        -2.05871857648243   20.34188839213811   -0.34527315236368
H        -2.01528600123835   21.08213646111480   -1.12191623421316
C        -0.94840915118106   20.18572601285709    0.47550985554176
C        -1.00888796841303   19.19287158880276    1.47263236972177
O         0.01091665454445   18.90827615627065    2.27628337835006
C        -4.42340428779682   19.76609460200000   -1.13393631361279
C        -4.71600914054519   18.42461366169341   -1.82083778963581
H        -4.94892580433754   17.65028023164100   -1.09539299838677
H        -3.85079122898369   18.10246081589115   -2.39600359564798
H        -5.56286563930781   18.52498720296216   -2.49641487199093
C        -4.19344206979880   20.81658336453465   -2.22356973314271
H        -5.07649904086854   20.88015567865584   -2.85628599323608
H        -3.34845457899498   20.54830591096283   -2.85297462520086
H        -4.02030680038089   21.79920501029861   -1.79131088322161
C        -5.63916840677877   20.19984528119973   -0.30267253749554
H        -5.42901935100405   21.13643268851733    0.20943140721308
H        -5.89593129486096   19.45321700162826    0.44352197349387
H        -6.50242630053762   20.34534504859666   -0.94857977821350
C         0.27753116760623   21.08443393964596    0.36088878056151
C         0.43024568249456   21.88242203392809    1.67034795171374
H        -0.46558342076280   22.49309171741374    1.82568554513166
H         0.52753806410050   21.19991198283933    2.52763429896535
C         1.54759530207913   20.24835882350326    0.13247615198091
H         1.67846258783570   19.53212492692003    0.94892659485822
H         1.44531892003702   19.68649033756720   -0.80052960560603
C         0.15476068815629   22.09217405292698   -0.79148983294874
H        -0.72783691353974   22.71938396461722   -0.64485699574364
H         0.05148992700785   21.55923303321062   -1.73973019865622
C         1.66717881438800   22.77884262126289    1.60194740028996
H         1.76171961551641   23.32398661171690    2.54804171457669
C         2.91445142812185   21.92493924662316    1.38146497850012
H         3.79761436400612   22.56679069411598    1.34223004195534
H         3.04013415960591   21.22649941172477    2.20958870566145
C         2.77554603409403   21.15596991994671    0.06892614411367
H         3.66591374232740   20.53636557969434   -0.08390373892695
C         2.63283758494597   22.14249571723312   -1.08757017221550
H         3.51669206549171   22.78178077366081   -1.14558253128514
H         2.54596797477929   21.60412936885763   -2.03479115060125
C         1.38705479119902   22.99357530096008   -0.85808719386215
H         1.26570871826939   23.69775741911984   -1.69056084284451
C         1.52101487484847   23.77038834602751    0.44945328830668
H         0.63947599984971   24.39882333314103    0.60104274585926
H         2.39477889466564   24.42446379790175    0.40729159139642

