49
CSD_code = DAWLET | q = 1 | S = 0 | Stoichiometry = C16H29ClN2Rh(1+) | MND = 8
Rh        3.96122118191819    9.84478402803200    7.77756162138861
Cl        4.66019487446361    8.66426651941249    5.93051742397343
N         3.84656515247569    7.99852373549035    8.68241084331257
H         2.89146828727581    7.65898133022201    8.81540496086449
N         6.12409714958857    9.83137340363283    8.23214785847922
H         6.51878752923007    9.64106986735020    7.30570616611898
H         6.43493303644702   10.76253880148371    8.51377800501371
C         4.41594746768229    5.77822085827825    9.45792787948673
H         3.34350194444439    5.60049898309948    9.48765728170580
H         4.82510811836378    5.64282707798907   10.45837036805709
H         4.87978266776404    5.03101823066516    8.81586739603175
C         4.74588989914509    7.14033977750141    8.95563225864386
C         6.19850220369546    7.43932928278100    8.76451048710428
H         6.39347779356449    7.32501035420711    7.69268500803821
H         6.79310650224949    6.69588782614077    9.29396801858117
C         6.66137121533485    8.84772508843768    9.18663813557227
C         8.19266342251632    8.88774556676826    9.14158691826501
H         8.55895000002550    8.59857701018491    8.15928189532950
H         8.61598920600022    8.20867587249435    9.87580821950904
H         8.55656140662673    9.88804540217336    9.36591972244497
C         6.16519660107343    9.20923401089397   10.58605131231852
H         6.61468190007865   10.14256772588221   10.91675058543530
H         6.43495756940134    8.43543925805783   11.29841669191441
H         5.08214246668816    9.32483539676643   10.58755692543414
C         2.28952889026411   10.85355463842439    8.83709232151067
C         1.90819654229537   10.42425724570783    7.50845503660124
C         2.69182246445353   11.17544285807613    6.56138049226802
C         3.64930001190515   11.93256569368107    7.29307613523537
C         3.36943260302178   11.75998743922071    8.70832763837142
C         1.57976038673466   10.51009275509406   10.10386687803953
H         0.80074760069202   11.25288565360895   10.28222990819409
H         2.25343091297563   10.52212152471613   10.95740172566888
H         1.10216131804306    9.53499254945843   10.04789299641797
C         0.70446139229170    9.61278263284185    7.15481882571131
H        -0.11292485077152   10.28509617262214    6.89015652821495
H         0.37664770570410    8.99361431757907    7.98611556805223
H         0.90078868666434    8.97336203792816    6.29623912145113
C         2.47388120531554   11.20439588044329    5.09055534109834
H         1.68582097471410   11.92639463141976    4.86988707641677
H         2.15655126087254   10.23418640331156    4.71610724580537
H         3.37318300153230   11.50550964836504    4.56023019006273
C         4.57815553343633   12.94493844995480    6.70278191898446
H         5.03421386815144   12.57316051567131    5.78747664902953
H         5.36614693454606   13.22371120465613    7.39792094854661
H         4.01441867960215   13.84524625174822    6.45487350371458
C         3.98541991736475   12.54583845814070    9.81682267944685
H         3.39182122292438   13.44653252009811    9.98067782563729
H         4.99914000302940   12.85753331726789    9.57745737759838
H         4.00049613818587   11.98308179202075   10.74710008489959

