61
CSD_code = DAWTAZ | q = 0 | S = 0 | Stoichiometry = C24H28N6NiS2 | MND = 4
C         0.95376965566029    2.65060469926522    3.27962642274730
C        -0.18523916498544    2.62986629341818    2.30122985456750
H        -0.38114228895307    1.59290326462063    2.01675357752415
H         0.15720426275171    3.14297453207631    1.39608853340617
C        -1.43620376505496    3.29807502315317    2.85672188863618
H        -2.15334254748161    3.46680947169446    2.05171956448290
H        -1.90623676960069    2.64910114719748    3.59934389937103
C        -1.05764574981804    4.62147550357454    3.51999023124409
H        -0.53736745239871    5.24331015048810    2.78565170290072
H        -1.94709786807659    5.16089473347305    3.85109295543955
C        -0.16621321265037    4.32914391811724    4.69029251495851
C         0.78541043695899    3.30829534488518    4.55868598277841
C         1.53900632771895    2.91642391967478    5.66938596411102
H         2.19935537986099    2.04214808043386    5.59121635244373
C         1.41061472562767    3.58671550439255    6.87034204751696
H         2.00024026518595    3.28620867433634    7.72321859330331
C         0.51933950066892    4.64248122238153    6.97759581822712
H         0.42379145210960    5.17589976460719    7.91191373244569
C        -0.27751132738225    4.99423450122204    5.89895181920734
H        -0.99929424514689    5.79295476792438    6.00151551260390
C         3.14468919829403    0.60181474667348    1.70379626172454
C         2.33415286463671   -0.23118239397312   -0.45025195042887
H         1.67851612276725   -1.09500563862003   -0.30136939146744
H         2.82758064458704   -0.32407437188006   -1.41782061128333
H         1.73337363099601    0.67508944173547   -0.42739922951135
C         3.48162377104672    5.17956588524134    3.72448275539820
C         3.33746818399674    6.55021383789954    4.32077709370030
H         4.27195743185616    6.81111290775448    4.82405169867647
H         2.57055034240846    6.48429692233687    5.10005556358630
C         2.95746757713295    7.59584497161015    3.28047980251763
H         2.64080954228549    8.51399972059993    3.77800408431414
H         3.82212607749864    7.82972003108863    2.65500268283404
C         1.83536407189384    7.05365862018792    2.39642452329543
H         0.99467725786493    6.76874674006717    3.03569648583546
H         1.48611651342201    7.81580737674811    1.69724216470919
C         2.35432983930925    5.86358785737061    1.64535326973176
C         3.21311328222958    4.98124828616431    2.31542397807342
C         3.82343467406252    3.93933522769264    1.61039273039141
H         4.58203342089693    3.32207470482223    2.11053052777537
C         3.51805068065557    3.72517383600637    0.28035901472516
H         3.98513986642833    2.91446486672144   -0.25810379605274
C         2.61398749975439    4.55698219361535   -0.36094720278256
H         2.36444170466855    4.38620340582880   -1.39784679574863
C         2.05461055351029    5.63089143970852    0.31434250433874
H         1.38039255591325    6.29938979360838   -0.20331472355324
C         4.82366910798994    3.51331077988772    6.35186415112527
C         5.10873426449168    4.89742992011160    8.35050659368069
H         6.03744854530509    5.47353092484538    8.28885253398324
H         4.88410386265580    4.69945320887205    9.39873259380287
H         4.30418847884299    5.47668197803007    7.90335051485045
N         2.08334704619030    2.09165803250067    2.98267515778556
N         2.11870851513676    1.39139471693210    1.82245363886667
N         3.32731934554302   -0.12742256086115    0.58687039805392
H         4.04387222316011   -0.83571340384864    0.63291714516985
N         3.83641545890528    4.17723511561559    4.46343821066529
N         4.18971858561917    4.46886445902150    5.73926445150450
N         5.20344622763664    3.65108461492807    7.63612640061056
H         5.83065936698930    2.94520578086184    7.99050812868860
Ni        3.79997765054334    2.25228655761342    3.97233318623440
S         4.35006919382471    0.40055616115965    2.94408640086319
S         5.24637720405854    2.00286278839058    5.59582208537912

