48
CSD_code = DAWXEE | q = 0 | S = 0 | Stoichiometry = C17H23CrNO6 | MND = 6
Cr        6.46317220182004    4.53117699361071    4.07023932562299
C         7.00696898772729    3.20267878972121    5.23815620645259
O         7.35610170427893    2.38332967984535    5.97069596672933
C         7.66961824348798    3.88323237761472    2.80511171058792
O         8.42357129662467    3.40254067711929    2.07877230890359
C         5.20761395338857    3.28507007226950    3.45947776987743
O         4.51380264173981    2.40197529932577    3.22102802151013
C         5.22693430630987    5.13409590027064    5.32989503166527
O         4.48355478512388    5.44390249345175    6.15110735385939
C         7.77704824671795    5.58224004600929    4.86635871055466
O         8.61224748031783    6.09328068339154    5.47847142351515
C         5.77673927800026    6.01399307997083    2.74760519945008
O         4.61227297200927    5.74224454818112    2.19135267530821
C         4.02140336494857    6.69760646239071    1.30036562947779
C         2.65275174533807    6.18474245983739    0.89439344271357
N         6.37035378123010    7.10451974856811    2.50593769255444
C         7.20809579606682    8.04367798748471    2.44798973638499
C         8.33202184035182    7.89305325912893    1.42323504854549
C         8.80789332710325    9.20148587999440    0.78951319036675
C         7.85572551182287    6.97754866299424    0.28438164973301
C         9.50364061824119    7.19266655789498    2.13092226985607
C         7.02199773863296    9.19620278041518    3.43358697707564
C         5.95413816905980    8.80309927572877    4.46596653799512
C         8.30819449657051    9.50796876533260    4.20520633380359
C         6.52310860761369   10.44907721676344    2.69563696470297
H         4.67163761326626    6.81956313089201    0.42507793507590
H         3.94447694504051    7.66557835544191    1.81260089387264
H         2.02547736321194    6.06482648271701    1.77338481399110
H         2.17979600065617    6.88493193862957    0.21134906126215
H         2.74965694926881    5.21950086314947    0.40537900555121
H         9.22593391609176    9.88765798866257    1.51808273429293
H         7.99521027676378    9.69278607803903    0.26020380334169
H         9.59005126640977    8.97618286420695    0.06720397893306
H         8.64579403359873    6.87299885348504   -0.45492692305282
H         6.98325099586349    7.40106361907946   -0.21014594048650
H         9.96752392807023    7.83420763018584    2.87254486649297
H         9.15916350389314    6.28454930924139    2.62348265812844
H         6.23780661124083    7.89289083217976    4.99160280199526
H         5.84350996251830    9.60021676124248    5.19688082207129
H         4.98681518691883    8.64222434429677    3.99530551546583
H         5.68923274133074   10.20152496019831    2.04178060570487
H         7.30385326677011   10.91196725231900    2.10310257979697
H         7.60682011841937    5.98527364466596    0.65352065030140
H         9.10533249396296    9.85871773645743    3.55816474989360
H         8.64904421994778    8.62737263078276    4.74332580109879
H        10.25745928412758    6.91877664948931    1.39630534363003
H         8.10369315996124   10.29115914358423    4.93219417015731
H         6.17758906818046   11.17941923374586    3.42377289519728

