79
CSD_code = DAWXEG | q = -1 | S = 0 | Stoichiometry = C38H26CoN6O8(1-) | MND = 6
C         2.14549052637795    1.86391637798403    0.82170026393874
C         1.49363507099300    2.60480258218504    1.80630812548901
H         0.43856232904794    2.81241827638248    1.72841109339507
C         2.19500940439708    3.08301255571736    2.90091002790609
C         3.56091433279852    2.85781367783076    3.01062539918549
H         4.10496911820676    3.23163226144651    3.86979799870920
C         4.21679496249303    2.16196565998300    2.00890269921632
H         5.28207365442235    1.99719897796548    2.08711302894861
C         3.52497604986854    1.66627854719425    0.92444026308786
H         4.03849553360961    1.12770354891515    0.14552576780859
C         1.85517281448053    1.41735835506653   -1.48302011920169
C         0.93438986442415    0.68486098833291   -2.40994799937493
C         0.97430532205073    0.69951105442806   -3.79594562377904
H         1.75169791155256    1.25884908058209   -4.29179122371593
C        -0.00006484864738   -0.00012355028572   -4.49300377034500
H        -0.00008135440973   -0.00015088898131   -5.57363809304956
N        -0.00002817718716   -0.00004508713932   -1.76356533753078
N         1.40673256095645    1.30407299465002   -0.22120791623246
O         2.81936510894055    2.06167089362758   -1.88302851161531
O         1.50550782662328    3.77804456033457    3.85994523545172
H         2.12243205756543    4.05682633561352    4.54691615408273
Co       -0.00000000000036   -0.00002051008806   -0.00000000000002
C        -2.14555244736845   -1.86385683559011    0.82182483189020
C         2.14555244736879   -1.86385683559113   -0.82182483188909
C        -2.14549052637802    1.86391637798435   -0.82170026393871
C        -1.49377946769269   -2.60481022454082    1.80643268844700
C         1.49377946769288   -2.60481022454175   -1.80643268844603
C        -1.49363507099310    2.60480258218520   -1.80630812548902
H        -0.43872055183109   -2.81251201700653    1.72856494937841
H         0.43872055183093   -2.81251201700618   -1.72856494937835
H        -0.43856232904808    2.81241827638260   -1.72841109339514
C        -2.19522625300525   -3.08298316507903    2.90100865966129
C         2.19522625300522   -3.08298316507870   -2.90100865966128
C        -2.19500940439721    3.08301255571727   -2.90091002790620
C        -3.56111327943629   -2.85766645618740    3.01069805525598
C         3.56111327943610   -2.85766645618635   -3.01069805525638
C        -3.56091433279863    2.85781367783046   -3.01062539918572
H        -4.10522408216713   -3.23147486536328    3.86984044319317
H         4.10522408216728   -3.23147486536374   -3.86984044319255
H        -4.10496911820684    3.23163226144609   -3.86979799870946
C        -4.21690814627594   -2.16171742800919    2.00898909476780
C         4.21690814627554   -2.16171742800755   -2.00898909476852
C        -4.21679496249308    2.16196565998256   -2.00890269921666
H        -5.28217509077818   -1.99686240169762    2.08717701994242
H         5.28217509077855   -1.99686240169894   -2.08717701994119
H        -5.28207365442215    1.99719897796503   -2.08711302894894
C        -3.52501754419822   -1.66607096213757    0.92455407641342
C         3.52501754419807   -1.66607096213697   -0.92455407641350
C        -3.52497604986860    1.66627854719415   -0.92444026308807
H        -4.03846284268096   -1.12741938251663    0.14564268660460
H         4.03846284268094   -1.12741938251667   -0.14564268660419
H        -4.03849553360968    1.12770354891494   -0.14552576780891
C        -1.85519722285620   -1.41746761906993   -1.48290174715490
C         1.85519722285959   -1.41746761906478    1.48290174715454
C        -1.85517281448022    1.41735835506762    1.48302011920180
C        -0.93445096613353   -0.68500222955581   -2.40988607907684
C         0.93445096613199   -0.68500222955730    2.40988607907686
C        -0.93438986442433    0.68486098833331    2.40994799937498
C        -0.97440682669820   -0.69973086487924   -3.79588204403798
C         0.97440682669538   -0.69973086488256    3.79588204403803
C        -0.97430532205097    0.69951105442834    3.79594562377913
H        -1.75181125226045   -1.25910390731647   -4.29167048466915
H         1.75181125226046   -1.25910390731586    4.29167048466931
H        -1.75169791155349    1.25884908058143    4.29179122371622
C         0.00006484864658   -0.00012355028628    4.49300377034498
H         0.00008135440979   -0.00015088898073    5.57363809304967
N         0.00002817718663   -0.00004508713938    1.76356533753078
N        -1.40675813884888   -1.30407826835482   -0.22110061993994
N         1.40675813885010   -1.30407826835291    0.22110061994011
N        -1.40673256095624    1.30407299465089    0.22120791623256
O        -2.81936369524145   -2.06185238052102   -1.88285652816233
O         2.81936369524086   -2.06185238052119    1.88285652816282
O        -2.81936510894099    2.06167089362776    1.88302851161518
O        -1.50581079794640   -3.77809917150990    3.86004459527474
O         1.50581079794670   -3.77809917151002   -3.86004459527455
O        -1.50550782662339    3.77804456033427   -3.85994523545186
H        -2.12278821205791   -4.05689876745820    4.54696196221937
H         2.12278821205820   -4.05689876745759   -4.54696196221954
H        -2.12243205756568    4.05682633561361   -4.54691615408245

