102
CSD_code = DAWZIK | q = 0 | S = 0 | Stoichiometry = C47H46Cl2N3O2PRu | MND = 6
Ru        1.34536998592931    2.27203727992175    4.87951350635228
Cl        2.84108531581692    3.60935828600501    6.24835857503931
Cl       -0.38952894514314    1.15916237123692    3.54247192608358
P         3.08296357286732    0.93605386441448    4.05237660473949
O         2.74542531136666   -1.89211898970720    5.09813603329960
O         1.93368319122449    1.00563289644030    1.56463416278560
N         0.78634435366910   -0.12892620885267    6.70332420845353
N        -1.07155701347586    3.91708067706025    5.78089830306110
N         1.30116621340907    4.16355043793631    2.47568948625221
C         2.41567770839093   -0.52911917706761    3.22124947747033
C         2.26150500359979   -1.77721520765087    3.83160680840881
C         1.61287001899733   -2.79688843552169    3.14243082511697
C         1.06444192248360   -2.54321507665937    1.89808042013658
C         1.13311288629012   -1.29008995362490    1.31695547810316
C         1.79617598251573   -0.27347836833670    1.99075955057895
C         2.83390536105748   -3.17086832772364    5.67719602399534
C         1.19553122455131    1.40912512491401    0.43518847081262
C         4.29794883918514    1.66313544345947    2.90155874737910
C         4.81164988419026    1.01672987323375    1.78427684010186
C         5.79967409688915    1.62504305381960    1.03042113300053
C         6.29175244282300    2.86778002843523    1.39425934154978
C         5.79026704310693    3.50864880609985    2.51549507997814
C         4.79404112701286    2.91100846556191    3.26563419538229
C         4.34529251102290    0.25645993827699    5.18638610006237
C         4.40991119738074    0.65226913963577    6.51352475906492
C         5.40994832981550    0.15865249247619    7.33692426741875
C         6.34202143542741   -0.73518350156333    6.84213270980713
C         6.28306478918938   -1.12870239059186    5.51328390847322
C         5.29762499604840   -0.62875660696642    4.68658702262419
C         1.05813571304534    0.86087843650626    6.14463254494773
C         0.47252546277689   -1.31803190198786    7.27357602107609
C         1.15895045107496   -1.72453708790476    8.42411616076715
C         0.83514277383656   -2.95360067075846    8.97603787399360
C        -0.13919335185730   -3.75315849378688    8.40299904378415
C        -0.80831208038564   -3.33262336450286    7.26619859866204
C        -0.52065670356648   -2.10934315042478    6.67985909019366
C         2.22104379500855   -0.84888048834234    9.00773621993258
C        -1.23028550769177   -1.63536349158999    5.45482532713298
C        -0.10857808466051    3.30642750066044    5.52372170441253
C        -2.26372449478796    4.53269750977574    5.97968829711619
C        -3.43617862087557    3.77080816825681    5.89183678555038
C        -4.64347055791421    4.42583063019199    6.07593917919542
C        -4.68203839355702    5.78455713910822    6.34029062807384
C        -3.51012891465630    6.51777627692121    6.42441841501342
C        -2.27968919066614    5.90706420808751    6.24468303104755
C        -3.35422471258186    2.30275565202731    5.62281245722280
C        -0.99037850172309    6.66314410766132    6.31514507284186
C         1.45675639249029    3.50484134865934    3.42881876229237
C         0.88544258585719    4.85249500636384    1.38276243846044
C        -0.49177336233727    5.04555010122633    1.20055614160960
C        -0.90203790155167    5.73327025282049    0.06944834052929
C         0.01954248296347    6.21157449879722   -0.84641964441030
C         1.37481160965068    6.00784769306309   -0.64846760758596
C         1.83246354146967    5.32534980333088    0.46702953662071
C        -1.46213085462225    4.51990678980312    2.20836502071591
C         3.28772437638579    5.07789479298580    0.71086696846254
H         1.49950298599431   -3.77375577221114    3.58388920869547
H         0.54758309692009   -3.33708424363809    1.37996813831874
H         0.65001652652003   -1.11202729737863    0.37070860607317
H         1.84509776799668   -3.59698271083211    5.87499537195519
H         3.40918032630681   -3.85476355486010    5.04547349624380
H         3.35625486707770   -3.02917863108470    6.62214522361079
H         1.41818226032769    2.46356904719521    0.28448404554043
H         1.49589102990191    0.84984812927866   -0.45684678802783
H         0.12325942660145    1.28508799346420    0.61263821691894
H         4.43511806751336    0.04467169760244    1.49628320254159
H         6.19198873950810    1.12380182004726    0.15666820292702
H         7.06712075297069    3.33450561529658    0.80421349884256
H         6.17692143149362    4.47494535614128    2.80490661498369
H         4.39658448723660    3.40503052475961    4.14464429473649
H         3.69353249938170    1.36427032818080    6.89937681029274
H         5.46080055571382    0.47870304131718    8.36797081061915
H         7.11883350425969   -1.12248160442567    7.48574796148930
H         7.01361804377457   -1.82312113177551    5.12267449139964
H         5.25557128725231   -0.93253607226958    3.64943165030714
H         1.35208343128345   -3.28663498448495    9.86401885679943
H        -0.37946642105004   -4.70837751676282    8.84554307971297
H        -1.56833493126824   -3.96087445804915    6.82484672522529
H         3.06274882862794   -0.77476612462432    8.31818935314636
H         1.84389877952912    0.16051043701417    9.16958996197784
H         2.57525352720510   -1.24939184988432    9.95411862212650
H        -1.77256902016157   -0.71151932359474    5.65625477570381
H        -0.52391857255877   -1.41019045054706    4.65529114259824
H        -1.93436389520900   -2.38296728576525    5.09941400195967
H        -5.56327103785901    3.86326187829326    6.01215135749820
H        -5.63277905138859    6.27619189816420    6.48260173963027
H        -3.54973317698640    7.57697226333455    6.63170755839728
H        -4.33980396969827    1.89042900920720    5.42446919994365
H        -2.70198363449036    2.09444336794454    4.77355896214350
H        -2.92942407804795    1.78987569224589    6.48738081450447
H        -0.30831204103693    6.19386232871630    7.02376392761972
H        -0.49372238011024    6.66067744449600    5.34382037509625
H        -1.16117038379758    7.69312117026175    6.61626575426540
H        -1.95734648914295    5.89454006389221   -0.09392553485730
H        -0.32050197379892    6.74574640986373   -1.72087252360728
H         2.08781178880179    6.38207704852575   -1.36823174753336
H        -1.35948953082914    5.06155870553892    3.14967531679532
H        -2.48435185603047    4.63017793964006    1.85688586565681
H        -1.27012370618683    3.46644514767961    2.41981265641689
H         3.48660485101618    4.00981457354678    0.80304110499175
H         3.89009083140237    5.47885055567832   -0.09987676688069
H         3.60080971829381    5.54376632328653    1.64500198984763

