89
CSD_code = DAXBOT | q = 0 | S = 0 | Stoichiometry = C41H38Cl2O5P2Ru | MND = 6
Ru        3.47926483768054    2.39685649112428    0.00089253883944
Cl        1.99866607193723    0.75145877618194   -0.86565262558667
Cl        4.42367599410762    4.32080155749781    1.03508549594847
P         2.48347625249579    1.90251869402200    2.00886719922710
P         4.31363197949515    3.03111866536358   -2.09803192583295
O         1.63166700361441    3.78283617140222   -0.05972699948841
O         0.20223828135187    1.55810069295678    3.80420022804517
O         3.72070332210016    5.88413981918576   -3.15371104711463
O         6.65889513725388    3.16616694795084   -0.80595885795569
O         5.67678041118647    0.45047858720961    0.45216839383006
C         0.84407310018573    2.66680085055407    1.86919682236370
C         0.60645028014760    3.54869617226889    0.81062764563912
C        -0.64757916984274    4.14164018999565    0.68331294227972
C        -1.64302513269986    3.82902950749308    1.58992843027086
C        -1.42262340891637    2.95778046133603    2.64239051755374
C        -0.16801386326583    2.38037287229315    2.79456845578940
C         1.59587349263262    5.00051335859940   -0.78148243786787
C        -0.77035850908018    1.10859831303164    4.71530184043621
C         2.14982676167112    0.17960567771285    2.47989353478900
C         1.08876256796488   -0.50322822790751    1.89066575584938
C         0.85840185202842   -1.82835815799080    2.20664637358272
C         1.68103091774039   -2.48476687443106    3.10757723044349
C         2.73728627925139   -1.80889569126728    3.69420032988233
C         2.97473184188555   -0.48215282919658    3.38222398640222
C         3.25138050103350    2.64307609503953    3.47763628798755
C         2.59087590459467    3.47160962774941    4.37358050364876
C         3.27817597297571    4.01295635219065    5.44640594824102
C         4.62312596192525    3.74058677547906    5.62509347936339
C         5.29370244693191    2.93750450391037    4.71581988644763
C         4.61380159678149    2.39768856782212    3.64199696403448
C         5.30765714704762    4.54811430453473   -2.05817389435944
C         4.93766496482580    5.80478580426547   -2.54250616318470
C         5.79249432971976    6.88612968928595   -2.35662426426043
C         6.95986973160185    6.72423339615540   -1.63276691626531
C         7.30236340291822    5.50642049265587   -1.07456597468408
C         6.46699051209318    4.41686916936614   -1.27922125589458
C         3.34215097393733    7.09040573359998   -3.76824427629377
C         7.69923000002561    2.95421349736234    0.12252132160937
C         3.20095943753728    3.22467699518816   -3.53572361371531
C         1.84314960748786    2.96384453265513   -3.42430616549242
C         1.01782998750217    3.08602559141606   -4.53005204917756
C         1.54441832308879    3.46712320834451   -5.75067822625804
C         2.90490417409915    3.70992407136085   -5.87042628794562
C         3.73159794800590    3.58195907309200   -4.77264862473725
C         5.42265164308715    1.80733854240649   -2.87690558723232
C         5.03709293559664    0.47332090015613   -2.80083047742921
C         5.79860032187341   -0.50647839331651   -3.41113826709276
C         6.94745941777736   -0.16152211815540   -4.10351219312734
C         7.32973825547621    1.16693957524326   -4.18819867470611
C         6.56987644950983    2.15128785626678   -3.58225490156031
C         4.84773995163730    1.21941985671488    0.24430554107887
H        -0.86102762127663    4.82382098667096   -0.12292437244923
H        -2.61744494618333    4.27946373291717    1.47517266989650
H        -2.22073859249508    2.74383577087457    3.33456464035747
H         1.37738487266181    5.83548348499492   -0.10827193121796
H         2.58761587098404    5.13955933374611   -1.21445403781097
H         0.85796405755992    4.96310171644078   -1.58993830815692
H        -1.17901679806147    1.93422644852654    5.30711521851305
H        -1.58415828505572    0.58518879971690    4.20457835478879
H        -0.25295332956124    0.41359072005094    5.37437018093032
H         0.45024575460526    0.00184758504275    1.18062972085883
H         0.03479500208831   -2.35288896439366    1.74421957636459
H         1.49972294377442   -3.52168356403401    3.35088456143355
H         3.38162795279943   -2.31675987844708    4.39751748718195
H         3.79782112708886    0.04075303659136    3.84792853511821
H         1.54692799258108    3.70737685786599    4.23078058891276
H         2.76097338721437    4.65883161328173    6.14177161894049
H         5.15449955735704    4.16912312223722    6.46239680345528
H         6.34982693315909    2.74547328707731    4.83827033363098
H         5.13684996642166    1.80555967793210    2.89943800806712
H         5.54182798118258    7.85999167376439   -2.74475473030091
H         7.60666602245664    7.57564635603413   -1.48223582615173
H         8.19342214244441    5.42332009099581   -0.47479547598326
H         3.22204450624936    7.89560838462443   -3.03599804369307
H         4.06317579144316    7.39614751641518   -4.53234670097059
H         2.38298606344546    6.88550318605498   -4.24195063373563
H         7.65204512393600    1.90010121418917    0.38859712111123
H         8.67613398011628    3.17094519681706   -0.32152210600351
H         7.54734311739480    3.56681090023522    1.01594598394357
H         1.43498422220971    2.63023654067869   -2.48034813819077
H        -0.03850801145953    2.87707474838880   -4.43731233513124
H         0.90067046743221    3.56616512599365   -6.61301907953433
H         3.31959996580854    3.99522234939591   -6.82700595527828
H         4.79235234533157    3.76638462884883   -4.86765453923397
H         4.13671893938412    0.20811300371393   -2.26066637824579
H         5.49581200367405   -1.54103832687518   -3.34438736772480
H         7.54594855930493   -0.92631497450916   -4.57698672186420
H         8.22586431581979    1.43828023497167   -4.72852000299886
H         6.88035841779856    3.18583265729349   -3.64365466516972

