111
CSD_code = DAXBAF | q = 0 | S = 0 | Stoichiometry = C50H52Cl2N3O2PRu | MND = 6
Ru        1.55401500887406    2.18347400657083    5.03632384519762
Cl       -0.20975783099178    1.17706467052878    3.65172601317507
Cl        3.09015974885505    3.41740921927636    6.45650016274675
P         3.24543905542180    0.80707607597899    4.18307287439414
O         2.12547081316346    1.00259552908566    1.69296902765994
O         2.79124096746722   -2.04102484979615    5.13216696203179
N         1.60506394597486    4.15814845081728    2.69975266648047
N        -0.81883349108886    3.87830509888198    5.96509867808956
N         0.88114349534525   -0.25224654976266    6.77542915959963
C         2.53068979650696   -0.60434335331968    3.29992470298565
C         1.93251584973209   -0.28339878919364    2.07414968329475
C         1.23545952633710   -1.24952577513240    1.36170668045897
C         1.11116791642557   -2.51716055100332    1.90082620018050
C         1.63791526727291   -2.83352709975978    3.14012570852663
C         2.32147741593201   -1.86433783475428    3.86751646363169
C         1.41249734586972    1.47602476157675    0.57483988956002
C         2.81866210681031   -3.33988880209151    5.67057170956319
C         4.47141357329359    0.04269064317768    5.30319744654645
C         5.39159560350696   -0.86430421111551    4.78278411437290
C         6.35100681953424   -1.42695409798567    5.59977713667351
C         6.41625613909043   -1.07553994871996    6.94007152830198
C         5.51642877501981   -0.16089669517901    7.45603952607335
C         4.54231219904125    0.39597377367403    6.64199903837920
C         4.49902783365874    1.51965819163850    3.06448110024666
C         5.04057502404302    2.73551509010710    3.46941601380763
C         6.06483880535306    3.31616005653330    2.74404654414006
C         6.54945918491060    2.69046275168334    1.60695675622055
C         6.01237548140344    1.47929822611964    1.20258040164534
C         4.99589801290892    0.88771355659797    1.93142837446892
C         1.72750561626416    3.45741204876869    3.62707138580144
C         1.23375902281865    4.90638761067106    1.63090723563286
C        -0.13097543943174    5.14632298266114    1.42171486594935
C        -0.49357777425454    5.89754345717266    0.31548234209909
C         0.45234517073407    6.40094140490631   -0.56702827873962
C         1.79836154871194    6.14194678480562   -0.33178656877987
C         2.21192429024575    5.39864472637505    0.75884411293270
C        -1.14330918759885    4.60093543648129    2.37668421792020
C         0.04346123870922    7.22191330703213   -1.75148059270987
C         3.65506258957134    5.10352030349675    1.02211047599395
C         0.12737137448591    3.24463990862526    5.70022104304693
C        -2.01975993724139    4.46366489407572    6.19742574263950
C        -3.17163479048818    3.66492308276395    6.17372115629107
C        -4.38890884280057    4.28289735001198    6.39488368097316
C        -4.48099566243887    5.64954834267137    6.63745112323580
C        -3.32043974345207    6.41097718193500    6.65441368600710
C        -2.07737994501971    5.83998739782073    6.43548589728215
C        -3.05201448741147    2.19542402778827    5.92725627231598
C        -5.82009792707878    6.27558977802933    6.88110555221362
C        -0.81841247681316    6.64964857678042    6.43325450916245
C         1.19743269097232    0.74444832074638    6.25376540621253
C         0.52044326475233   -1.45006960471410    7.29720126362285
C        -0.49722105635574   -2.18392979928033    6.67409317579990
C        -0.82864584670769   -3.41828511657837    7.21047592769447
C        -0.18670655840357   -3.92399566402440    8.33275770474535
C         0.81572218913559   -3.16827306068051    8.93002178107060
C         1.18585665599432   -1.93198077356717    8.43121215583872
C        -1.18997738771200   -1.64103834315616    5.46790019357523
C        -0.57479747080474   -5.25148359487692    8.90855898360701
C         2.27925185007228   -1.12368882133635    9.05351131577740
H         0.76832621790522   -1.02108755153612    0.41822217347117
H         0.56742655932353   -3.27207632273031    1.35275697098549
H         1.48118903442128   -3.81879873659409    3.54838947457631
H         5.34484608488663   -1.13538373752420    3.73680525026723
H         7.05650819304391   -2.13772210862455    5.19268669141489
H         7.17302894770983   -1.51187528997720    7.57623635711258
H         5.57227210095736    0.12584324636422    8.49659511726759
H         3.85158370670263    1.12395494673645    7.04448244876323
H         4.65577331497080    3.21802224013785    4.36036023154432
H         6.48632031796917    4.25767996374931    3.06489249429898
H         7.34647376300851    3.14441346359042    1.03596697776517
H         6.39132905433587    0.98959346114084    0.31639348866482
H         4.58401183661699   -0.05970467231840    1.61141538525034
H        -1.54173072171913    6.09285085022035    0.13921245695514
H         2.53934226959504    6.52948220549166   -1.01639185831649
H        -5.29080782133301    3.68763779799662    6.38022031323131
H        -3.38298612942489    7.47332633174077    6.84240907602303
H        -1.60965689319449   -3.99810358808650    6.73888001792591
H         1.31945357724781   -3.55508986726849    9.80449974268468
H         1.67664424478315    2.52616583690584    0.46601357708225
H         1.69850798873642    0.93918069006847   -0.33561942885937
H         0.33486882950200    1.38680721956580    0.74043312107636
H         1.81045890240907   -3.72824840061567    5.84694184456167
H         3.36980180206935   -4.02798650926027    5.02194120414440
H         3.33766474606942   -3.25082822732113    6.62378503294426
H        -2.15195751833597    4.75399353391567    2.00264000495940
H        -0.98441606537374    3.53446318757532    2.54536080351346
H        -1.05423693616625    5.09482018709584    3.34517260075108
H         0.32884817526820    8.26329744899135   -1.60209648939615
H         0.54052356103398    6.86783173845406   -2.65292169159341
H        -1.03190479317671    7.17940484618574   -1.90326000403823
H         3.83255749410139    4.02766057648953    1.02602077398805
H         4.28859982345719    5.56090060000196    0.26689137627937
H         3.94676158116711    5.47990433022555    2.00221786825497
H        -2.54134381042940    1.71820937226119    6.76559817418092
H        -4.03227101052911    1.74095353337038    5.81118014353766
H        -2.45774444233287    1.99735535757374    5.03373159117478
H        -5.73181249135272    7.35155595228100    7.00632153702111
H        -6.49091457143169    6.07447477292279    6.04693201431407
H        -6.27378652639198    5.85778732312533    7.77930081258774
H        -0.05168940256609    6.17178788364884    7.04194693097559
H        -0.42206427807672    6.73038241339878    5.41984365825158
H        -1.00143028171438    7.65142398803734    6.81260025343923
H        -1.72199720236055   -0.72158574388843    5.71179929947733
H        -0.47453186215726   -1.38597851896273    4.68586568457344
H        -1.90132180503621   -2.36043514392990    5.07105016948429
H        -1.19797885584265   -5.10631769704304    9.79140333253285
H        -1.13823136432329   -5.83974829482428    8.18854606756146
H         0.30649652466360   -5.81306447658187    9.21227602299858
H         2.62883667613239   -1.58791256104442    9.97215458562989
H         3.11688140510859   -1.03520668843223    8.36086513128583
H         1.93392069182262   -0.11450485238679    9.27641701157009

