39
CSD_code = DAXDUD | q = 1 | S = 0 | Stoichiometry = C13H18AuClN5S(1+) | MND = 4
Au        3.80480713871676    3.78423590257264    1.75460119826400
Cl        2.87202864094856    5.76061880318090    2.21375737227840
S         2.25056402161339    2.43514830406421    2.73755980953418
N         5.46635902551024    4.51131878121705    0.70298266313499
N         4.70883168213921    2.07026169904268    1.29237035943019
N         4.21214051700832    0.89143933199345    1.66564995534012
N         2.56464284991161   -0.21686465198309    2.79169486903647
N         6.48165642285849    1.05606390118013    0.21277169336793
H         7.35547614843213    1.08949122704956   -0.27841971907523
H         6.11626430512366    0.16944751943188    0.52201089457967
C         5.76783749106936    5.77777476648730    0.46867753658735
H         5.06987339326286    6.50560901266726    0.85977387446321
C         6.90515294634467    6.13819136662961   -0.23607176058974
H         7.12270393428025    7.17833201924264   -0.41391636299366
C         7.74186798387431    5.13238926424393   -0.69980137115055
H         8.63607173250873    5.37550282873360   -1.25278818816283
C         7.42116855799564    3.80785048136625   -0.44703812934295
H         8.06574233271277    3.01974669091793   -0.80138617791790
C         6.26127202139823    3.51037550150531    0.26634795378734
C         5.82061755722527    2.15960639692270    0.59479415408907
C         3.09919416429142    0.90630357671823    2.34610288291108
C         1.28884320907410   -0.25358754123661    3.46955124841964
H         1.15436557009667    0.68140934126470    4.01955257914384
H         1.31884268597784   -1.07719445220221    4.18639028438041
C         0.12249925715199   -0.44822665675422    2.49741148175449
H         0.00363682148576    0.45567983929141    1.89739077810917
H        -0.78290236238028   -0.57384417220183    3.09147517352853
C         0.29472926686053   -1.64940022408763    1.56698338541565
H        -0.65002605044057   -1.79125988212276    1.04068254491091
H         0.48073108636300   -2.55532259931768    2.14539853102798
C         1.40277945258335   -1.44501461123110    0.52861069174841
H         1.15541330651652   -2.00137325572682   -0.37625350363343
H         1.43325172546082   -0.38805140373193    0.25336619174252
C         2.79655140448627   -1.89588001173580    0.97643415387150
H         3.52888750803553   -1.47129202133004    0.28851682133859
H         2.87000842409654   -2.98179024849991    0.91267773675235
C         3.14574726214208   -1.48936087827833    2.41586946802500
H         4.22979600709232   -1.42595049443373    2.53208712628411
H         2.76537255816885   -2.23348345084935    3.11518179960969

