77
CSD_code = DAXDOX | q = 1 | S = 0 | Stoichiometry = C26H38AuN10S2(1+) | MND = 2
Au        0.94033968486904    9.03332946263958    7.32702762443958
S         2.11985608752928    7.19100347067371    6.52337253184281
N        -1.57999740304638    5.03616194853628    6.04125856695619
N         0.17083101284491    6.38242987238572    4.62227714120481
H         0.27757759386356    6.18680484780280    5.63476543810966
N         1.06447412218363    7.20601094227344    4.05081684486556
N         2.93582166734208    8.46454647681085    4.30402177262326
N        -0.89228270138697    5.99601731047162    2.63182343217401
H        -1.68524695658945    5.68521457430382    2.10298559340406
H        -0.22593217478243    6.62969350913726    2.21936376017921
C        -2.36468445072226    4.30514851185765    6.80332016670229
H        -2.20639363626198    4.41002249616961    7.86788881187131
C        -3.33581235096221    3.44754513455035    6.29925048601096
H        -3.95595002482786    2.86816541144573    6.96338964208945
C        -3.47610879411228    3.35610927518097    4.92382064926465
H        -4.21138727148816    2.69702453357945    4.48800222745650
C        -2.65611324160998    4.12142792244908    4.10986057522662
H        -2.73865440708342    4.05008438447499    3.03702939466602
C        -1.71567147170714    4.95651212046493    4.71398478853706
C        -0.79644236261857    5.80480355110161    3.95626828121472
C         2.01137468176707    7.66515047107919    4.83649242083333
C         4.00534907278271    9.06389767104324    5.06578272224505
H         4.89811112088135    9.06946662961852    4.43377814608223
H         4.20753943883951    8.43463583283679    5.93584848636441
C         3.69092414406610   10.48955795105271    5.53047605328026
H         2.93769727172356   10.44981218069144    6.32541064731523
H         4.60244963963675   10.90332819623924    5.96572976826332
C         3.17653265558670   11.41265802887737    4.42625637926259
H         3.11930524004585   12.42044301220690    4.84215641574789
H         3.88370078807103   11.44235728236713    3.59548710721289
C         1.78374913176744   11.02109489081385    3.92265532812085
H         1.21461333266552   10.60674036145023    4.76035226115167
H         1.25319242169475   11.91609181819317    3.59401020270530
C         1.78173993956512   10.02429768251903    2.76002771902063
H         0.78012109582855    9.60133042391205    2.67494778996328
H         2.00740364778498   10.54330754131691    1.82738533999287
C         2.80163845694975    8.89075718366019    2.92806334861073
H         2.50043848454708    8.02962190837955    2.32744482828524
H         3.78609269695392    9.21993945919862    2.59353242312058
S        -0.23858035332911   10.87638081865015    8.12896845672542
N         3.46126715871753   13.03124704132363    8.61116892954072
N         1.71044233332195   11.68495801218200   10.03011330004350
H         1.60373135227320   11.88055069216432    9.01761353137933
N         0.81680304018948   10.86135592819923   10.60154331285261
N        -1.05452034489163    9.60280356795012   10.34830924655587
N         2.77350493365072   12.07137636305127   12.02059614902852
H         3.56643642719865   12.38221953084410   12.54946651945986
H         2.10714096738476   11.43770433046373   12.43304172630885
C         4.24584168293515   13.76240780910311    7.84912964109702
H         4.08784592078687   13.65720716506903    6.78455447483734
C         5.21705433617929   14.61990768026435    8.35320905468474
H         5.83727160014891   15.19920796484466    7.68907481031847
C         5.35743073526301   14.71122259447132    9.72864240527726
H         6.09260742096552   15.37040526244697   10.16448104210325
C         4.53741147041051   13.94591521399727   10.54258697340060
H         4.61987011531651   14.01733393944582   11.61541802716601
C         3.59697794031685   13.11083273237261    9.93844247594990
C         2.67769450728268   12.26259097687904   10.69614904660565
C        -0.13004856196048   10.40216280854037    9.81583360061005
C        -2.12405041901485    9.00347060706268    9.58654296146985
H        -3.01681684733171    8.99789775910626   10.21854383383497
H        -2.32622574162513    9.63272683070941    8.71646737761132
C        -1.80960247065234    7.57780504590437    9.12189202897528
H        -1.05637986045748    7.61753272695080    8.32696999268518
H        -2.72112812509217    7.16403108979018    8.68664441549462
C        -1.29523254705374    6.65470536640529   10.22612450147028
H        -1.23799532032323    5.64690852394426    9.81025238019647
H        -2.00240358406976    6.62501892463960   11.05688991145318
C         0.09754211298501    7.04632137324350   10.72970293733560
H         0.66663429066445    7.46071040679443    9.89197888314211
H         0.62811410988991    6.15133268342869   11.05835305125915
C         0.09951896616137    8.04309760664569   11.89235369699535
H         1.10113064133437    8.46607216756427   11.97746809103452
H        -0.12616944785821    7.52408987589439   12.82499124623004
C        -0.92038322158907    9.17662909999920   11.72429055494162
H        -0.61918825689061   10.03776423690524   12.32491247013625
H        -1.90484314383991    8.84745096100824   12.05881382541380

