38
CSD_code = DAXPIC | q = 0 | S = 0 | Stoichiometry = C13H16BrMnN4O3 | MND = 6
Mn       12.41615657401376    8.20795593055952   10.72998087438773
Br       11.25785664726997    7.61789742614423   12.86827327490777
N        11.26889606899838   10.03056711306813   10.75178253914784
N        11.04042313201005   10.64558468164004   11.92467776343845
H        11.31364634258758   10.20169993116741   12.79551410655536
N        10.76095633624041    7.40971323136588    9.68255564617308
N         9.53517892740772    7.51414829933283   10.22206432982730
H         9.43717879037960    7.76461989354839   11.20371557639418
C        13.38429917546785    8.63829564966929    9.31196787840312
O        14.15133652782014    8.88704974155253    8.48668155248136
C        13.27405593210963    6.65255425497302   10.80606900785296
O        13.88179982519958    5.67979599578238   10.87646808228143
C        13.73848923151927    8.92946510975841   11.66988540242398
O        14.63939323910776    9.35393721660619   12.24703570505582
C        10.33896674531727   11.78078855318082   11.77263545808290
C        10.11365904051627   11.91043566098596   10.41752454482863
H         9.59015916154840   12.69931064228445    9.91842538362375
C        10.71270440416494   10.79492037435150    9.81515639452765
C         9.95776170657078   12.63441543482336   12.92289115098948
H        10.84076336546813   13.10478062100163   13.35486334112572
H         9.48038772773796   12.03744444777192   13.69847494763421
H         9.27280891126673   13.41258374040107   12.59951341629374
C        10.72731928736579   10.47008305017212    8.36476475939166
H        11.60954025224060    9.88473343880926    8.11384525866054
H        10.72764392873054   11.38699360501972    7.78050654787890
H         9.84217494293226    9.89288454681638    8.09294812015645
C         8.58021448661339    7.05504295053193    9.39555305387985
C         9.23015366753774    6.65535921387654    8.24594126466121
H         8.79073112171137    6.23898670659003    7.36316287464663
C        10.59506367387188    6.88686602150248    8.47058685849705
C         7.14571827846183    7.04928704073421    9.77132402013613
H         7.00858648736712    6.56820789587318   10.73856689468487
H         6.56762268012359    6.51390180438110    9.02397888006608
H         6.76441901603198    8.06805754093269    9.84384122929401
C        11.71256568274234    6.59842082548824    7.53466514115898
H        11.94634092887302    7.47464507230754    6.92957448120041
H        11.43220367386510    5.78855712591207    6.86568688099734
H        12.60922407881524    6.31430921108581    8.08439735825010

