58
CSD_code = DAXRID | q = 0 | S = 0 | Stoichiometry = C22H18F12O4SW | MND = 11
W         0.78191459997631    0.67198086065653   -3.90215135469877
S         1.88824501501169    2.51931436819744   -5.37860820985401
O        -0.02471865214623    1.96825983366703   -1.07434198445822
O        -2.21721858563775    2.42272645836257   -1.31028795214320
O        -1.83038796477464   -0.36889516901157   -1.10655974451975
O        -2.08497035064671   -2.02777437649874   -2.60344448101711
F         0.02843450711885    4.38394759680425   -2.40105034209737
F         2.06161171229833    3.64909294375993   -2.28428530053788
F         1.50500506025289    5.04697079869575   -3.80897496859796
F        -2.88469663203417    2.67719309568082   -4.67569997615954
F        -1.45723933329491    4.04860688765737   -5.52532667964193
F        -1.72915479574258    2.09958981482664   -6.38529667879982
F        -3.82546883082753   -0.98183799268221   -4.49561285750258
F        -2.57827330702268   -2.56822987208919   -5.24398754171445
F        -3.07664462063062   -0.90726034857116   -6.51002107767426
F        -0.40142070581120   -1.86275599294312   -7.16065106535984
F        -0.40560477206466    0.19219415849354   -7.80846025057659
F         1.34599482079727   -0.63277667908710   -6.87280274440983
C         1.06277575249735    3.96415323255053   -3.13856178186668
C         0.71915521844869    2.82032839396350   -4.03069438637248
C        -0.61095499152946    2.23394189092502   -4.26211306011180
C        -1.66048431175491    2.75829087104812   -5.20410002000875
C        -1.05366582764619    1.42254066690823   -3.10505074511430
C        -1.06204974390894    1.93783259156725   -1.69831342430366
C        -2.26622827451733    2.93082853168071    0.02008728768965
C        -1.39268711723010    0.05359565824948   -3.40026375566639
C        -1.80314144733091   -0.77036359331798   -2.25113734704820
C        -2.52938825475129   -2.89126225874528   -1.56561982852459
C        -1.53090307264666   -0.48147798116616   -4.78253050248775
C        -2.74918607576542   -1.23486448152901   -5.25227665196692
C        -0.40707245691992   -0.19367285597859   -5.45309335081750
C        -0.02483556062643   -0.62506177657809   -6.81872184940726
C         1.26351415934783    3.11441647180818   -7.03929224002185
C         2.20796555273365    2.51239422157032   -8.06393960593484
C         1.28793354090327    4.62875815161287   -7.04830201212224
C         2.37584226352406    0.51350656164166   -2.11641532488591
C         1.39121022170258   -0.45400734041452   -1.91185797167027
C         1.38912734529556   -1.35497828321807   -3.03120806407177
C         2.39202002904926   -0.91852933899007   -3.93344378876102
C         2.96725267376091    0.27807460760932   -3.38880420433539
H        -3.25666249972139    3.36037793186526    0.14108975132511
H        -2.10746457084270    2.11420000267209    0.72601179342454
H        -1.49175865780292    3.68714513251322    0.15846650812692
H        -2.66017375726196   -3.86629893354392   -2.02686167192392
H        -1.78899899677646   -2.93367709895785   -0.76405016073147
H        -3.47452921229874   -2.53016704007410   -1.15702111694328
H         0.26050571393456    2.71842483247963   -7.17708768051872
H         1.87455125169295    2.78710170755921   -9.06146209723828
H         3.21858307104455    2.88599657998072   -7.91647013482831
H         2.22165569640199    1.42884444781897   -7.99376476218828
H         0.95894423409578    4.98405924545446   -8.02219191372659
H         0.62765219380305    5.04802986244763   -6.29523615788460
H         2.29645970151991    4.99186017168066   -6.86538756298484
H         2.65363985341723    1.28752922407885   -1.41908350641740
H         0.79986432685077   -0.56233363118758   -1.01443518202482
H         0.86611819345448   -2.30418360224302   -3.07751518363799
H         2.77135511771327   -1.46963065409720   -4.78438516504858
H         3.85825155332194    0.76903149443594   -3.76689991920239

