58
CSD_code = DAXREZ | q = 0 | S = 0 | Stoichiometry = C22H18F12O4SW | MND = 11
W         2.56972919230157    2.00044765606292   -2.74077895849667
S         0.01587165640768    1.67568279238033   -1.86792518552772
F        -0.75590833893211    4.49574234889736   -1.06389689385792
F         1.19066821311302    5.38174443936351   -0.96093656996241
F         0.28032003217874    4.98161385833887   -2.87857856754028
F         1.13138706253609    2.81923442974275    1.34959671333519
F         3.04464644766013    1.83461378380476    1.24790419387701
F         1.27942187550590    0.86073516637147    0.48197269440903
F         6.09367808798626    0.66057303280448    0.45437478119170
F         6.09928072766434   -0.85081223048241   -1.07766751095470
F         4.69679009804791   -0.97334459139150    0.54112454337351
F         3.47200496715961   -2.00247291062436   -2.14066472017318
F         1.59359688802095   -1.07933664452017   -2.64606903303433
F         2.03422824094113   -1.58664583822581   -0.59224992743722
O         3.44034739422582    5.08551361234648   -2.48545984736645
O         4.28789320437529    5.22781421431945   -0.40484137330936
O         6.06113824872756    3.78072659890782   -2.03207177212320
O         6.66348983588168    1.61518023330598   -2.07124514025509
C         2.66160272425870    3.31320677543238   -4.76862525472169
C         3.96610506758622    2.98074516734836   -4.40873311882582
C         4.09214533722082    1.55014509634824   -4.39633224141377
C         2.83825313214446    1.00285141979667   -4.76585399862620
C         1.92969424555035    2.10148422807409   -4.93932381140287
C         0.46461723648577    4.48435538587752   -1.63186034953881
C         1.09849365039251    3.13257905482259   -1.67672658199963
C         2.16634558895450    2.67582872154355   -0.77088077898620
C         1.91379488373230    2.05166344053376    0.56980829095240
C         3.49450653876787    3.14370989716709   -1.17005845506876
C         3.78272157418983    4.59128701542623   -1.43447900040603
C         4.55984974636817    6.61323650344155   -0.59740198893645
C         4.48212926347407    2.12507650503964   -1.40950298234000
C         5.80193702806490    2.60941273111198   -1.84468291937093
C         7.97778950966000    1.99143479359058   -2.45899080671370
C         4.28710730074856    0.68964851957440   -1.07704965743820
C         5.29379227526599   -0.11161922775729   -0.29181760353551
C         3.13255169059515    0.28301461366934   -1.62040644029697
C         2.58496894303555   -1.09162327084853   -1.69805649466537
C        -1.05016021887740    2.01186679135205   -3.35415974966627
C        -2.42834938899610    2.45999968668270   -2.89814385431970
C        -1.12472737678892    0.71176793694873   -4.14108420533791
H         2.28300723122950    4.31238712451704   -4.91667770038887
H         4.76870687459591    3.68563985344440   -4.25374138875016
H         5.02275122705453    0.99782556375615   -4.32624913042492
H         2.64836454281147   -0.02751220780492   -5.03982209354043
H         0.97209560974969    2.03049074335466   -5.44033058140173
H         3.66182446333006    7.12284526188581   -0.95019286716388
H         5.35652909246318    6.72753520670834   -1.33387973493927
H         4.87033378592669    6.99622423178553    0.37055001893089
H         8.45217351086690    2.56961410631335   -1.66437465312880
H         7.94700498532903    2.59616633987259   -3.36799510733670
H         8.51440622364590    1.06190659474950   -2.62816691113991
H        -0.55149784253023    2.80420961068427   -3.91770513632486
H        -2.38724165140213    3.39842894635926   -2.35502770486467
H        -2.87270615749373    1.70683858028232   -2.25228745941435
H        -3.06924683860449    2.59449049111519   -3.76696540404598
H        -1.60752473897100    0.88303947134425   -5.10074549979915
H        -1.70940532895568   -0.01835779048944   -3.58757221726916
H        -0.13592757467824    0.28874613555170   -4.30444185248874

