58
CSD_code = DAXROJ | q = 0 | S = 0 | Stoichiometry = C22H18F12O4SW | MND = 11
W        -0.40941739290282    4.17477336473972    0.05880173808172
S         0.82862780928532    6.34006620285840    0.95138632660197
F         3.38704472061062    4.52014091454796   -1.49821823948355
F         3.35671208170563    6.49710295021871   -0.66656788672596
F         2.03158987649161    5.99916916571493   -2.28056139197072
F         1.73859335112855    4.14715818813548    3.06412117179974
F         3.27892691148953    2.94782753992795    2.14994762163423
F         3.27206914586345    5.06770456543495    1.87933442682912
F         2.74855651680044    2.71903538263746   -3.96079138332873
F         0.96746932607384    3.74948379674623   -4.52207695982106
F         0.97045160337396    1.60055745428600   -4.42111565159275
F        -2.48948839465355    3.99612578816727   -2.39905234670333
F        -1.47781612729732    3.02388355349790   -4.04155652162798
F        -1.12920744564752    5.66056288824583   -0.97048642396882
O         1.52113967402368    0.27389192403388    0.44760274212750
O         1.09466771881026    1.63219980566308    2.18390957803826
O         3.92747879260929    1.65838111272880   -0.70778396027829
O         2.89064756713459    0.60195521462859   -2.39848373527688
C        -1.49401193108341    2.44501171405481    1.17025816478230
C        -1.17374255347820    3.47174116954131    2.10386021824730
C        -1.93540431303594    4.62195695237175    1.75442487059057
C        -2.73897413825077    4.29419223890699    0.63490222165167
C        -2.45147376501072    2.96605602073440    0.25390946929625
C         2.57251009284510    5.51333553662951   -1.13751325487198
C         1.48477910877377    5.06984176981026   -0.20167803237149
C         1.59617393899453    3.88525962796091    0.70824972436678
C         2.47942599330686    3.98388220126268    1.92323595396041
C         1.24618047255143    2.61198428673716    0.04582321551275
C         1.33151918089520    1.38580874488962    0.87684369409419
C         1.26199242186987    0.52249537014890    3.05907496473084
C         1.73294635088000    2.33105029093007   -1.34204909717563
C         2.98634626476477    1.51008079449031   -1.43820327177588
C         4.01503053823983   -0.25466694571255   -2.55677855213784
C         0.98903098399202    2.79266760909637   -2.36428678055964
C         1.41837514555843    2.70671269435742   -3.81006406849790
C        -0.27936375117284    3.41646125892315   -1.98351488610604
C        -1.31416761858886    3.48535002259283   -2.80995935876490
C         0.37103090178247    7.84268246110278   -0.04624277120767
C         1.42944150716742    8.90916463656086    0.17209798038051
C        -0.99930366023580    8.30957815430262    0.41646609945304
H        -1.26009904655655    1.39371803006964    1.27230897158863
H        -0.62437532365369    3.33879330169466    3.02550482299748
H        -2.02065402279808    5.52439634324691    2.34970613505617
H        -3.48441785524752    4.93166901313727    0.17431272611447
H        -3.00427511425726    2.38483698289086   -0.47341985762076
H         0.57298710949589   -0.28120243742603    2.79142064460348
H         1.05473203073528    0.89504399295732    4.05853050409611
H         2.28470253110277    0.14956255236781    2.99398232488913
H         3.75524243204361   -0.94502003940787   -3.35447145918195
H         4.20733539726864   -0.78990367543109   -1.62517016146584
H         4.89650177269897    0.33160017527305   -2.82236900776124
H         0.33822752491972    7.51418081030395   -1.08656200942218
H         2.41609012153778    8.56223180166512   -0.11633266674640
H         1.18488144867261    9.78276265404664   -0.42800285713391
H         1.45964667291256    9.20331719976521    1.21875430115039
H        -1.28010359798800    9.20101345654428   -0.13920839480075
H        -0.98047168851754    8.55386000223308    1.47679961453053
H        -1.75053729803614    7.54527341416587    0.23445076117472

