75
CSD_code = DAXVON | q = 0 | S = 0 | Stoichiometry = C34H35Cl3P2Ru | MND = 8
Ru        1.57238878697657    1.67842800612921    5.16773870137848
P         1.82242493229654    3.32109340069576    3.65131430643752
Cl        0.34648841018850    4.64319688117374    3.68484356879153
C         3.28579862075763    4.41675074220289    3.66714284881954
C         3.25905461451887    5.70180758569099    4.19604060592464
C         4.41399366961219    6.46281856240309    4.21447184107568
C         5.59760926361446    5.94499354585597    3.71825395198616
C         5.63102764529407    4.65601624417997    3.21083736028467
C         4.48203621510611    3.88998619506250    3.18740248861203
C         1.85388611571623    2.83619948754911    1.88812951936134
C         2.42151279637535    1.60474896668359    1.57982269283493
C         2.50061615499563    1.18649774512974    0.26409568898531
C         2.00965179920377    1.99367126504665   -0.74888066700150
C         1.45030463735071    3.22408754929814   -0.44412515279016
C         1.37421235890635    3.65093907964894    0.86934988116739
C         0.69722565202244   -0.23687774091136    4.39757097621662
C         1.24500733540084   -1.25113342194948    3.44131521583779
C         0.84666275438084   -0.33349329557074    5.83159812881795
C        -0.00276671302959    0.63415829205916    6.42676461937007
C        -0.62033017833794    1.39266448378182    5.37284446699509
C        -0.22726825354635    0.80136511117459    4.12043159602600
C        -0.87055451575184    1.10772682716604    2.80276521734277
C        -1.77747066689641    2.32715577958967    5.55145099449108
C        -0.38765419408002    0.72074980336446    7.87110655231889
C         1.56978447417770   -1.45301125681517    6.51532516741626
P         2.18022758710251    3.02763853531798    6.87075438666611
Cl        0.72592849250861    4.29031138251837    7.32776306808312
C         3.65221876413268    4.11932868266470    6.94930581890061
C         3.64025809506375    5.37045490295141    7.55483461937659
C         4.81177891402076    6.09928095534342    7.65043566165664
C         5.99757939339101    5.58480682624837    7.15527633187804
C         6.01133348298979    4.33644964392213    6.55591732890566
C         4.84478619826492    3.60313861757925    6.45168140783099
C         2.49275637263549    2.16609544648264    8.45390529710967
C         3.28653092869698    1.02634105487963    8.37222494742918
C         3.59807489389155    0.31740347072855    9.51713345730448
C         3.11772694225987    0.74135095020155   10.74615446888251
C         2.33382328376911    1.88024907844552   10.82837014304738
C         2.02281183860278    2.59856004592138    9.68715718772653
Cl        3.76815066612331    0.80584397458670    4.76630890968740
H         2.33929832795698    6.11191067000734    4.58944796659452
H         4.38760311805173    7.46298540800786    4.62128241795982
H         6.49609473961615    6.54411561818939    3.73240246546128
H         6.55602048530606    4.24549899684577    2.83393934966313
H         4.50664389542782    2.87723530874942    2.81167393262388
H         2.80381093169321    0.98188217190487    2.37789293646534
H         2.94323584867510    0.22918326800285    0.02981408923541
H         2.06378522703984    1.66529799505430   -1.77650211511991
H         1.07157634642372    3.85598986215956   -1.23421653311897
H         0.93795855107520    4.61178785955706    1.10136420061845
H         1.05347795122211   -0.96739237525591    2.40845767223471
H         2.32060240808257   -1.36949386419770    3.57712482243761
H         0.77503113400329   -2.21891769964738    3.62950567350217
H        -1.02550399575780    2.17852367305483    2.67236239230421
H        -1.84720822998467    0.62009787513444    2.76270761602858
H        -0.27122861012647    0.74653036168610    1.96931922459406
H        -1.83824732043493    3.04053966288515    4.73217252464802
H        -1.69540662241213    2.88254668305388    6.48330258962733
H        -2.70820475161075    1.75524526720158    5.57539617449012
H        -0.52220083174680    1.75317830733984    8.19117696314908
H         0.35692675585118    0.25617443322298    8.51430457213342
H        -1.33731086144308    0.19962164402151    8.01276685011211
H         1.66893712242733   -1.26705278651547    7.58302915666705
H         2.56638924440735   -1.58015841420206    6.09264653572630
H         1.02056852680349   -2.38662974276605    6.37321157575076
H         2.72180432543888    5.78260848143125    7.94607738061191
H         4.79667428612253    7.07304441976508    8.11823910921166
H         6.90981235877711    6.15757993861476    7.23573952388950
H         6.93305509280387    3.93084907994067    6.16666396769058
H         4.85044511232053    2.63438209407376    5.97188890309631
H         3.64991318291608    0.70014312427421    7.40602152083846
H         4.21188875128846   -0.56899364594485    9.45091116352473
H         3.35424762520079    0.18372747896118   11.64056684170776
H         1.96121653509028    2.21204209431818   11.78657811623147
H         1.40926577127812    3.48512334467073    9.75619681390416

