45
CSD_code = DAXWEF | q = 1 | S = 0 | Stoichiometry = C10H20CdN7O7(1+) | MND = 7
Cd        1.18521116208476    2.30148655669163    5.37824030064344
O         3.51128068882633    2.34254751996621    4.98914401571294
O         0.63189041941722    1.50830885987763    7.66446351944392
O         1.57750052151355    4.39665906216921    4.13863768419299
O        -1.05919619293303    1.60793766375121    5.24897800253521
O         1.55286369530181   -0.49268073028369    3.20638493477310
O         1.59213943759054    0.32555952149505    5.16291650405220
O         1.11848234256921    1.56423624932384    3.49027862414560
N         2.34247313333925    3.49829834535660    7.08673794911045
N         5.15207360696730    3.85728238630615    4.78131386536309
H         5.53243705327139    3.36609210839101    3.98624419005808
H         5.55232681491042    4.74547406247872    5.02905851565010
N         2.14676293151467    0.21647444757543    8.70616206895490
H         3.10781861644894    0.03062616420148    8.93755135825465
H         1.50686381619784   -0.56405307405619    8.71050046060368
N        -0.31514758659166    4.05051460537312    6.01084048023650
N         0.16219165101616    5.00414472404689    2.50285730644814
H        -0.78195817110904    5.09484391483547    2.16824619434815
H         0.89862424732780    4.94452171417413    1.81534409472426
N        -2.86537011785845    1.49858374465886    6.57390566466598
H        -3.41257847211289    1.87095636002779    7.33049274154983
H        -3.07832032279655    0.57001601405186    6.24147853642878
N         1.42433025692429    0.44180181225103    3.93398702387963
C         3.45415869266137    4.22048001192618    6.48151684244410
H         3.08610721459153    5.14928767236143    6.04413308421741
H         4.23888627304061    4.45958684363222    7.21458576486779
C         4.03242231210351    3.38735474469678    5.33945221471694
C         2.83023572172867    2.42078123394081    7.94756783841774
H         3.10141005700929    2.78928373240422    8.94943735228781
H         3.71301939311624    1.97219382568546    7.48686179128585
C         1.76909809834485    1.33046758363138    8.07452242427990
C         1.40210728960086    4.38055486806250    7.77929478442258
H         1.93236797617880    5.17047886915775    8.33059525016241
H         0.84901211414575    3.77764991259646    8.50031681872232
C         0.40997227331654    5.03943375268989    6.80970119981842
H        -0.28318619356120    5.66684771871457    7.38849514834190
H         0.95775458226830    5.68598123604252    6.12304811649675
C        -0.74106058897657    4.58505832924145    4.71817672932172
H        -1.18059133042460    5.59027298309798    4.81555675367995
H        -1.48829206755061    3.91452365194995    4.28758599724208
C         0.44199667056310    4.63375008432632    3.75502733688497
C        -1.44123113016775    3.46168338006501    6.72392362067895
H        -2.33055480743950    4.10877336802549    6.69755399410476
H        -1.16064229761193    3.29053174837449    7.76376703116200
C        -1.76078978475982    2.09669241671662    6.11811587066950

