56
CSD_code = DAXYIM | q = 0 | S = 0 | Stoichiometry = C25H22Cl2N6Ni | MND = 4
Ni        2.91716950247583    3.23505527385930   10.55052717175617
N         1.68053567665384    2.90056739624451    9.27691038058267
N         0.36415277809000    4.17369150211638   10.67762333430977
N         1.49794243892891    4.33000452893905   11.29130025565345
N         4.42614837936436    3.23565718995857   11.76565653826931
N         5.51191825389295    2.76844997969015   11.22772335672389
N         4.05147457940843    2.29064940360693    9.50912635966746
Cl        1.60753542341997    7.95424338183617   15.92449826870749
Cl        4.73937811754510    5.20448509358374   17.30037254490928
C         2.61054981144377    5.99120973277325   12.61897156117381
H         3.45233984656430    5.92333201034319   11.94250845263071
C         2.64625283940055    6.84709379549535   13.69837337032209
H         3.51942354633738    7.44917011300536   13.89288887085420
C         1.54733898223661    6.92203422585751   14.54286731084657
C         0.40335995309400    6.17731570937453   14.29157705379263
H        -0.44675344277653    6.25933304979557   14.95049274334257
C         0.36469645932826    5.33184831258402   13.20218191995171
H        -0.51338726191927    4.74179151958617   12.98952014207564
C         1.47877543641509    5.21113066917694   12.36945861693275
C         0.43541885216468    3.40543856762486    9.60135314773252
C        -0.48033000941940    2.98414689704327    8.61074097233215
H        -1.52685293196265    3.21299958298535    8.58388108741049
C         0.24422884280281    2.23108962395738    7.71203855656572
H        -0.13577689100637    1.75729580031869    6.82754731513792
C         1.59173853424359    2.19941274482834    8.15363120911524
C         2.77721820107901    1.52974204216757    7.50812657927100
C         2.98793471067875    2.13722871627171    6.10135326809167
H         3.81436134416957    1.61656861528086    5.61490480661952
H         2.08723251284079    1.96701384144116    5.50912506363689
C         3.28661253352264    3.63023547967939    6.15904727253621
H         4.18771657718730    3.81955054058364    6.73873866710590
H         2.46283562043075    4.16994661281058    6.62151004407865
H         3.43433605375094    4.02271845112374    5.15578983327194
C         2.48655418463406    0.01485304025004    7.37518527637835
H         1.60510097902665   -0.11799137646815    6.74567280416424
H         3.33320236960591   -0.45939539151219    6.87576033588783
C         2.25408978234668   -0.64835554030511    8.72714622490791
H         1.40416154728362   -0.19772290541744    9.23565076531121
H         3.12945744280409   -0.54180873252752    9.36449106614577
H         2.05262405602647   -1.70872969137602    8.59525696363738
C         4.03566505391261    1.70607417393151    8.31781525820448
C         5.35312128475130    1.27870523313496    8.01211961200465
H         5.65379888192539    0.76793147676210    7.11775059672012
C         6.16861912863372    1.62531077243574    9.06790073688243
H         7.22175574401535    1.45497985569940    9.16895161054580
C         5.33789070529275    2.26663960292429   10.01447934271366
C         4.54717829056948    3.67310692160765   13.08183068895942
C         5.71354471147415    4.27668387734954   13.55535228519838
H         6.55366888306679    4.38724394456317   12.88723710089066
C         5.77328222631248    4.74344933710807   14.85226817486270
H         6.66404798083354    5.22982110761140   15.21781786721199
C         4.67636281907397    4.59040829455359   15.68871665649526
C         3.52610004555250    3.95171153113223   15.24646311625568
H         2.69039423338713    3.81899372820431   15.91492471606560
C         3.46330302659694    3.49978165583665   13.94633066912928
H         2.58015135248829    2.99145868055799   13.58191205601756

