56
CSD_code = DAXYEI | q = 0 | S = 0 | Stoichiometry = C25H22F2N6Ni | MND = 4
Ni        3.47663751498950    3.14615162533412    3.07636376177414
N         2.60372811798422    4.29214960059087    1.98212217439889
N         4.30452554133999    5.70446544971247    2.63575129993293
N         4.73887828202365    4.61884468857571    3.20146599778928
N         4.01375520170995    1.72200594455978    4.28744214283458
N         3.37604278236101    0.61107352409872    4.07206039109334
N         2.21165569524800    1.94546558322308    2.59570297087794
F         9.74535619347955    4.89894996740859    5.44318260083437
F         7.69205208458857    1.64603374107508    8.36628570412687
C         6.83352864941065    3.59373506785970    3.76567687801941
H         6.47659362388098    2.68604476588057    3.29702802172934
C         8.09422380130802    3.64991941644002    4.32059619291869
H         8.74748759340385    2.79218061904807    4.32039645202965
C         8.51886257577836    4.84038774814829    4.88679106182822
C         7.72478100099310    5.97498456551763    4.89240581334271
H         8.09679354927667    6.88495119242173    5.33606846954446
C         6.46787359538487    5.91531281754872    4.32654972669320
H         5.82438245294748    6.78110786147879    4.31206725882657
C         6.00614323587016    4.71953376493951    3.77213126841751
C         3.15845125392343    5.55821654848077    1.99088955394782
C         2.33961285830924    6.40233322987953    1.20672376077771
H         2.50465527785386    7.44520509842737    1.02374182611507
C         1.30871015480304    5.61463079463420    0.74247723136938
H         0.50320914894290    5.93030509624665    0.10787803910554
C         1.50294282146929    4.30093830184755    1.24120597432279
C         0.67489605140370    3.06864637090957    0.98740125274154
C         0.72225243167602    2.74592381936695   -0.52596591078689
H         0.08620053863727    1.88040328592068   -0.71855497397129
H         0.31308235596038    3.59489018363589   -1.07639728875161
C         2.13788349451959    2.45739345186654   -1.01009694962387
H         2.78412750801734    3.31721979911510   -0.84631378826222
H         2.13170746567250    2.23051154184614   -2.07357318699953
H         2.56008967329597    1.60636737016955   -0.47952858557125
C        -0.78808801876512    3.34450252101563    1.40790618558201
H        -1.17082382907924    4.17849463893825    0.81738785505612
H        -1.38979878045716    2.46391903086309    1.17674187747280
C        -0.90896513908954    3.67027193101750    2.89141024148243
H        -0.55429807703380    2.83967648955942    3.49808124086291
H        -1.94708159690858    3.86557064855857    3.14964381774375
H        -0.32091669328347    4.55124062218395    3.14023281836835
C         1.18544759258106    1.87881645355959    1.75709160328912
C         0.69132742835139    0.54909786906692    1.75774078916047
H        -0.13842713663366    0.18981281432940    1.18014355720521
C         1.45620306311692   -0.18811965448285    2.63532304350904
H         1.35977156305084   -1.22691654498558    2.88011031823759
C         2.41800181711618    0.70257889364954    3.16415308484634
C         4.94521767944054    1.67353803802770    5.32284117689872
C         5.64910579295829    0.50428427422123    5.61966536705660
H         5.46244689068271   -0.38131066766839    5.03248354103303
C         6.57590967787243    0.49539449966322    6.64165898919461
H         7.13885182979065   -0.39328584191616    6.87960462294232
C         6.78236883104087    1.65413541208235    7.37139236665548
C         6.07801017686177    2.81863922863709    7.11454963257789
H         6.25422970382471    3.69620678466204    7.71563580476041
C         5.16036898606167    2.82407247454218    6.08567599061185
H         4.57841571203761    3.71039724826679    5.87015093402720

