56
CSD_code = DAXYUY | q = 0 | S = 0 | Stoichiometry = C25H22Br2N6Ni | MND = 4
Br        4.77441418648878    1.46911576927211   -4.26008735553672
Br        1.64827825780545    4.31921963719451   -2.80303807999985
Ni        2.90622689798106   -0.59994005556683    2.63031258510588
N         4.03593419337336   -1.55146779776931    3.66890253630728
N         5.50752543892515   -1.05326816271435    1.96629591966433
N         4.42372616758215   -0.58094653265304    1.42588334606838
N         1.66031606227518   -0.95484735531357    3.88827956909070
N         0.35019217971147    0.33048921331831    2.49372107848379
N         1.48964555410597    0.49823058173408    1.89115672205573
C         2.74907508030127   -2.33858630363697    5.65077724376642
C         2.46061259301230   -3.85504534282831    5.76995034615920
H         3.30264757585045   -4.33126131798362    6.27517536084590
H         1.57288455096128   -3.99392183818534    6.38919185901985
C         2.24335997239483   -4.50998558198023    4.41143862034083
H         1.40084295895547   -4.05475384073155    3.89477365457369
H         2.03746684618654   -5.57051459583542    4.53546340528501
H         3.12682928777369   -4.40300797236302    3.78537429395647
C         2.94996087435949   -1.74160413845624    7.06374198271163
H         2.04651423623697   -1.91948187025456    7.64948481441825
H         3.77509992639849   -2.26398128117846    7.55048368883241
C         3.24477706024880   -0.24724731438763    7.02082349733306
H         4.15094472992800   -0.05018863566315    6.45168858577583
H         3.38180027244779    0.13710542441824    8.02872203326196
H         2.42383376694790    0.29435058779561    6.55554450091034
C         4.01224968824276   -2.15224867973911    4.85117761094348
C         5.32887815518314   -2.58290980379422    5.16048648658250
H         5.62352914343881   -3.10516183111998    6.05017574838051
C         6.15113859570366   -2.22201660154073    4.11578507454733
H         7.20504090310885   -2.39030259551828    4.01974624481441
C         5.32610372500041   -1.56815884888224    3.17152209025217
C         4.55231352943777   -0.13554139338424    0.11385821635049
C         3.46979291777455   -0.30113494694171   -0.75469998525157
H         2.58389091520638   -0.80900883225667   -0.39553100750067
C         3.53810635142815    0.15615021827988   -2.05246872422164
H         2.70425458844502    0.02863738775974   -2.72522296675940
C         4.69361205161268    0.79010680051213   -2.48456646054990
C         5.78892786309725    0.93783237323030   -1.64704715097591
H         6.68338491038065    1.42183124827919   -2.00808218732394
C         5.72301657497055    0.46622670947302   -0.35228098707885
H         6.56150198894746    0.57185885601974    0.31857380129876
C         1.56612472691767   -1.66665511400296    5.00352550762956
C         0.21445104248386   -1.64382029005909    5.43605622465810
H        -0.16978571614637   -2.12765662663804    6.31318433822086
C        -0.50624065607956   -0.88515773758565    4.54011078828071
H        -1.55365686689995   -0.66005179320723    4.56194903572893
C         0.41555234884255   -0.45031328527234    3.55977331672941
C         1.47863352130736    1.39792702733706    0.82936060061082
C         0.37141038523655    1.53583654987463   -0.01030550944078
H        -0.50958577595399    0.94332462405131    0.18198790677284
C         0.42105174137093    2.40251580229974   -1.08246946579615
H        -0.42366621698451    2.49966615179426   -1.74710377785676
C         1.56862641127043    3.14852759221415   -1.30524152628333
C         2.66172039282684    3.05723031094328   -0.45642251828390
H         3.53726326138522    3.66338255799968   -0.63074050697685
C         2.61486610522670    2.18043886141109    0.60532981254192
H         3.44998472296985    2.09838403223540    1.28891976152854

