56
CSD_code = DAXYAE | q = 0 | S = 0 | Stoichiometry = C25H24N6Ni | MND = 4
Ni        6.61703229469423    4.93705371847934    9.29528918996417
N         6.28323989431262    3.25875414083434    8.70513370052113
N         6.00442002927173    4.36906917208765    6.70414421783716
N         6.41998825934041    5.37154673973016    7.41432956252262
N         6.85915802091683    6.57083294772366   10.31483094888822
N         7.24726654880667    6.35390483494575   11.53319499473064
N         6.89659889763031    4.16299426535349   10.90739900966052
C         7.68022754807028    7.38888384654226    7.09061559892127
H         8.31214840248023    7.08541380422605    7.91571503362316
C         7.91139227915266    8.56788039336225    6.41302340483527
H         8.72341769174169    9.21109824574615    6.71749101466452
C         7.10054761058982    8.92759952402299    5.34768503858419
H         7.27380357119733    9.85762307878184    4.82737747059473
C         6.07153802258568    8.08982353413015    4.94650322984419
H         5.44586800651779    8.36679752645561    4.11065643436626
C         5.83797847879388    6.90199217197752    5.61035706926565
H         5.03926411736105    6.24001291972762    5.31195136472245
C         6.63346993793344    6.55157554329829    6.70147568113384
C         5.91175539194820    3.23007205490334    7.37531889945456
C         5.56191899326313    1.90255326547703    7.04425629333750
H         5.22846379501297    1.55940721137324    6.08529654835684
C         5.73414621003041    1.16166203589067    8.19459565907080
H         5.56475647270509    0.10760099198514    8.30327045164688
C         6.18767476222730    2.03602445916509    9.21353696537692
C         6.54594066336461    1.70970536384184   10.64015358105716
C         7.73030066283926    0.71406755543010   10.63986338518722
H         7.95550866446931    0.43775013457878   11.67137052849761
H         7.42715229524238   -0.18905939900587   10.10715947618406
C         8.97475976287313    1.30005706760729    9.98449729503380
H         8.77498664411862    1.56565269296431    8.94848282492039
H         9.78620459266832    0.57622999710443   10.00349195040933
H         9.30004105189219    2.19540673440557   10.51028910343546
C         5.32495298934472    1.05444911940631   11.32855970909796
H         5.07339268890849    0.13621204271339   10.79505369449528
H         5.60204075743768    0.78627578594873   12.34964619528338
C         4.11396134918133    1.97880449862974   11.35405472966573
H         4.33961444721202    2.89342775818301   11.89840729466575
H         3.27536010779537    1.48677777727353   11.84126107075952
H         3.81493284384979    2.24771106291901   10.34301864916991
C         6.93842694188134    2.93846730321520   11.41873411347966
C         7.37416322665946    3.02973416825998   12.76419626338881
H         7.50219841295279    2.20482005266436   13.43848913837459
C         7.59135435890961    4.36099038424956   13.05129206724225
H         7.92597877119100    4.78789319631023   13.97558878894333
C         7.28675208467273    5.07285462564814   11.87028370036375
C         6.70174794587026    7.91502723621232    9.97642733903550
C         7.52512734534503    8.90592157902915   10.51157116397404
H         8.30117044564999    8.62169563934966   11.20594418304296
C         7.34721089982738   10.22175212390632   10.13329073587020
H         7.99441394712831   10.98617043874200   10.53775411591958
C         6.34656928461330   10.56547957113740    9.23761684766126
H         6.21710501223040   11.59569750148865    8.94170052157535
C         5.50786013161730    9.58693501364334    8.72692026205451
H         4.71772569297775    9.85412033003756    8.04127011188585
C         5.68323379484787    8.26772284665390    9.08961471699299
H         5.02833694584274    7.49267337123004    8.71204866041266

