55
CSD_code = DAXZAF | q = 1 | S = 0 | Stoichiometry = C24H26ClIrNO2(1+) | MND = 8
Ir        6.91450193609637    6.69541037332886    3.94399235892242
O         7.13458135468048    5.29885961346304    5.54304274745915
N         5.63132871041304    5.15557012412179    3.45765003545014
C         6.72614205793132    3.90442901286924    7.96616237264091
C         6.00588873021125    3.66964210653122    6.80061811792880
H         5.22162042033334    2.93814497765224    6.81605175741594
O         7.65120571820588    4.83403204685218    8.02611016944825
H         7.69835713487784    5.30333153924678    7.15609773970132
C         6.48742052873057    3.16670028137158    9.19913699971447
C         6.21268547634641    4.42155640929074    5.63050135956656
C         4.38113200391550    3.28515021664923    4.26764793744847
H         4.18386500265186    2.57325999134960    5.05097426116249
C         3.65152741673878    3.24672611921212    3.09390394953409
H         2.87918288721399    2.50741653660186    2.95265785955979
C         3.92772109957773    4.18265540093702    2.10651535318879
H         3.37914147275410    4.19457382246554    1.17910067463713
Cl        5.05916709664807    7.40926053306045    5.17376454316628
C         9.00243207358137    6.98570972463031    3.16362926377252
C         8.10806861531942    7.10423160754288    2.06902541209234
C         5.36803305803190    4.25312276425497    4.43076929783465
C         8.67615837406940    8.01876176309770    4.12877362755586
C         7.18246865546189    8.17264627968977    2.36901013184588
C         7.60620857626030    8.79086838987290    3.60428144081439
C         4.92147814853179    5.11599558660074    2.33338006079628
H         5.14916709309383    5.86710735221439    1.59187331572224
C         5.84664258726293    1.92237230439427    9.21768477229404
H         5.53463989796623    1.45403467653233    8.29772310692942
C         6.92947376007104    3.71907637662748   10.40822877283190
H         7.42352923946156    4.67785175325676   10.39560796341440
C         5.64739798540489    1.26243025932300   10.41318441802171
H         5.15917174554278    0.30007134024149   10.41816703836380
C         6.07497405569609    1.82747530382628   11.60642861912012
H         5.91067742985832    1.30764394497335   12.53759199730106
C         6.71857315224070    3.05580288255183   11.59959912770878
H         7.05593868356074    3.49477798310923   12.52561697943770
C        10.18918112831598    6.08982429566539    3.24130124388937
H        10.07652942728716    5.22444114979336    2.59377843242709
H        10.35822346457234    5.74584047235695    4.25895981446780
H        11.07612680331339    6.63968637460232    2.92307928797087
C         8.19260534409980    6.34736806929160    0.78750133008744
H         8.95002273857529    6.80895201483365    0.15238966139885
H         7.25002349530015    6.36404430777568    0.24702944721572
H         8.48194952224918    5.31193265533500    0.95252014815967
C         7.04797219549489   10.05830224318880    4.14750448824734
H         7.54399291632972   10.34434784189390    5.06968191138338
H         5.98161399742207    9.96046824421029    4.34564447240200
H         7.17973251970041   10.85298706728893    3.41338154144833
C         6.18537200749955    8.77937875945764    1.43930529305406
H         5.29617745146615    9.09256342285633    1.98201404509275
H         5.89333134353293    8.09120039596784    0.65056331494391
H         6.61980291659156    9.66343294491455    0.97067563729595
C         9.47968682991432    8.33739769188869    5.34454510790586
H        10.27097030475319    9.04116559891003    5.08238761850714
H         9.94415896921271    7.44410274366492    5.75377122351708
H         8.86062444562279    8.79076430835359    6.11446239778219

