41
CSD_code = DAXZUZ | q = 0 | S = 0 | Stoichiometry = C14H13BI3N6O3V | MND = 6
V         8.21282645313440    9.57801751698830    3.50374263636923
C         7.84127054490108   10.54975756131509    7.58208322800124
H         8.91867482895178   10.52230060895701    7.72780765574782
H         7.39394750107516    9.68978426921921    8.07653260227203
H         7.43233945013206   11.45112594846743    8.03170471801248
C         7.52160953088370   10.49244727477626    6.10231275070487
C         6.19555334620801   10.70507971911048    5.71527146826404
H         5.45619268599778   10.87357019780620    6.48361109632487
C         5.79712225892319   10.78832029428669    4.37810833150326
C         4.35207261949469   11.14440313888094    4.09491827127567
H         4.21927852573177   11.32542569777988    3.03069079601614
H         4.05330866887832   12.02497702487537    4.65833067409530
H         3.71593431539177   10.31456775567407    4.39667879831785
C         7.13099721319332    8.71006047700968    0.93042253187311
H         6.16074753684830    8.62889492790215    1.38796469181158
C         7.55641274969442    8.30875450305121   -0.33645896919730
C         8.88309479432465    8.67896281983368   -0.41763260543047
H         9.58193422212597    8.56866223794205   -1.22257741621159
C        10.57586391671804    8.10318428884997    4.38944805535245
H        10.09260085909209    7.93617418781357    5.33597208635140
C        11.76218074945614    7.56721467871825    3.88708896829472
C        11.93206887667944    8.14092888941518    2.64382869891995
H        12.71909620955417    8.01474804435654    1.92745654066890
C        10.63943279844692   12.44047480541985    1.59727104250285
H        11.40730959325265   12.58264620629351    0.86375487833997
C         9.99325132602073   13.35843837357887    2.39906566222187
C         9.08950595153473   12.61164990333787    3.15951784929910
H         8.39525990496775   12.95162538568307    3.90562136441129
N         8.13593851638599    9.27657125954632    1.57062839193913
N         9.20918030700029    9.26950225429903    0.74214035986647
N        10.06336928330287    8.93770449362744    3.50535248543009
N        10.89903178706056    8.97181794671543    2.43796781898273
N         9.19114562613443   11.33997081432735    2.83269342761284
N        10.13138798525260   11.23094387902456    1.88400663326307
O         7.62271594632393    8.22432354236833    3.85439203153614
O         6.55488898533904   10.63158402528314    3.38650802735811
O         8.48274418559134   10.29772365284001    5.31466743977099
I         6.43262683216654    7.36715904477211   -1.81693403833334
I        13.03435933600679    6.20221982035351    4.81368581754852
I        10.30853969126134   15.42121105149260    2.45431423845324
B        10.45288408656310    9.85517147800920    1.32174096045886

