80
CSD_code = DAXZEI | q = 0 | S = 0 | Stoichiometry = C28H41Cl2N2O5PPd | MND = 4
Pd        9.52653947492484    9.91029021094420   10.44725032232646
Cl        7.93085123268509   10.97910533824496    9.19677256014746
Cl       11.33590419998411    8.91658574264318   11.45015156635902
P        10.57626733050654   11.83961952075121   10.82376382610308
O         5.12166138888902    7.37263819365526    9.34471902172809
O         6.59129093086060    1.83927595499708   10.66235267578772
O         7.61281250330688    2.54322839453476   12.93777254340864
O         5.79749815132575   13.05325259246267   14.27335705193781
O         4.60857642619159   11.79683246392500   16.19901701692535
N         8.68123004942089    7.90408733861450   10.07551827246204
H         9.46423443440357    7.59776594186943    9.48464273634959
N         5.99760671232075    8.19350233460427   11.21653203793616
H         5.05483258105381    8.19771447207359   11.58200200027370
C         8.70341516879391    7.06253615666987   11.28607586758066
H         9.76037100820300    6.90520822064370   11.54343520081889
C         8.07149683006026    7.83004688903860   12.47565450415122
H         7.62048659761132    7.11995061103033   13.16701863970142
H         8.86010588318902    8.38050297901101   13.00180470621751
C         7.01581348384302    8.84699560627197   12.01546557978196
H         7.51287082448985    9.61542780215362   11.38875566612285
C         6.10295335885788    7.75608750348799    9.95227583387068
C         7.47501633552928    7.68206510541741    9.26099699414210
H         7.45537190488571    8.42757573113122    8.45446210875022
C         7.55352203556776    6.26555888082595    8.67960799430128
H         6.67872584242521    6.07777484923030    8.05695648550702
H         8.44736392165305    6.15553642041159    8.05512164278602
C         7.58582293065684    5.30138019327158    9.83302240444917
C         7.07339151884287    4.01494220049469    9.68000997947433
H         6.66539047537242    3.74411673894370    8.71951854870069
C         7.07514384220638    3.10931063537292   10.72208805199729
C         7.62435191463912    3.49778514868890   11.96558301678843
C         8.12485382999624    4.77574289527494   12.11075060821572
H         8.56539390882646    5.08013166339789   13.04708547230387
C         8.09691682816588    5.69333256178705   11.05881535600169
C         6.00382714251833    1.40838863279529    9.46016245850435
H         5.66663320570991    0.39015353532965    9.64715663588225
H         6.72628598056983    1.40392064840881    8.63685694847079
H         5.14526986340905    2.03013366786356    9.18595139886964
C         8.16022720018676    2.86035882643026   14.19175842167728
H         7.62032041221481    3.68312142853844   14.67321873657952
H         9.22188093225699    3.11927031322668   14.11661416560201
H         8.05234146532047    1.96002813008859   14.79450155014903
C         6.37246013112349    9.57706532961735   13.16519433599614
C         6.42580178525147   10.96972642686776   13.18330465903507
H         6.94098664736844   11.47266436250014   12.37710203232198
C         5.82161159465662   11.69514266670486   14.19298252383716
C         5.15909653191207   11.00888919105880   15.23712981915789
C         5.10635623407043    9.62612643511936   15.20750714488500
H         4.59350884395123    9.08340798043626   15.98506839558910
C         5.70035202792205    8.91429459722650   14.17401758463623
H         5.62620707617547    7.83750372444622   14.16766008828300
C         6.29710821755372   13.79265880979178   13.18735668804658
H         6.07551806813222   14.83447454298374   13.41365459562595
H         5.81007661829814   13.51238523074010   12.24806521353125
H         7.38088770092534   13.67172555967245   13.08101265595869
C         3.92129493908661   11.17831667343317   17.25751934536415
H         3.57089267893673   11.98979006340354   17.89322411493498
H         4.57948770779058   10.52317356011126   17.83816941384886
H         3.06088173695746   10.60328015932635   16.89930908737726
C        11.20376320710520   12.03270827151534   12.53967183096608
H        11.95163201452188   11.25064797951717   12.68637983731722
H        11.68259637245534   13.00536034590630   12.66799310190564
C        10.04940954843839   11.82951431729747   13.51547465799085
H         9.51274248880348   10.90854772539702   13.25704665180838
H         9.34743336520530   12.66007953130865   13.47204654428821
H        10.41208854387706   11.74204328947337   14.53702290522929
C         9.68373573341364   13.40327569439739   10.42854783398406
H         9.56322090974423   13.40741349914059    9.34192368310834
H         8.67867045991954   13.32324786557445   10.84977689029681
C        10.36428023126927   14.68066810408838   10.90064240144081
H        11.40333887425994   14.72018826900858   10.57988751944225
H        10.33378731895670   14.76781573140020   11.98403955821381
H         9.84989992378263   15.54331652439125   10.48193429433803
C        12.06036032735335   11.86298172023792    9.73463974680289
H        12.40163893856142   12.88892245392988    9.57347775285026
H        12.85113747481425   11.29894688044583   10.23632910255950
C        11.69502446403520   11.19054818594427    8.41103682230740
H        10.87554592090524   11.71922147014208    7.92164156682644
H        11.37464222854894   10.15222180438031    8.59966618070889
H        12.54815305202898   11.16872254850314    7.73566681004690

