44
CSD_code = DAYCAH | q = 1 | S = 0 | Stoichiometry = C16H21AuN5O(1+) | MND = 4
Au        3.63156859047118    5.63550840691322    4.41678298544287
C         3.68919044681864    6.54469211231700    6.20719716936585
C         1.90031498752826    6.61438912705481    4.12857543101613
N         3.60706467527488    4.69782692110824    2.52734998318128
C         3.93930191729621    3.42655172820281    2.38388736803271
N         3.52525315213092    2.97239899900228    1.18080840404821
C         3.59811162025494    1.65147059727708    0.60538342017908
C         2.93483718965947    4.02401642107777    0.53825661012072
C         2.98783101204117    5.08674218247113    1.38355054699299
N         5.48950322812377    4.64511421757657    4.59775562135187
C         5.64216107677094    3.38485896952987    4.22975542233836
N         6.81317999785681    2.90318961486538    4.70086801568170
C         7.38158675364812    1.57949479703919    4.62018507517584
C         7.42858484057157    3.92731094480423    5.36396676047249
C         6.59858399147235    5.00106753692209    5.29511867032753
N         2.88121900862579    3.21997034853063    5.02946103280814
C         3.51229257656379    2.20369303597154    4.46082248725401
C         3.21904574906899    0.87957631270681    4.74117698899005
C         2.21531451256152    0.61733199913410    5.66361568893468
C         1.55391991155293    1.67832174854481    6.25946904590088
C         1.92559503504854    2.96739141318964    5.90653401454158
C         4.60861949926929    2.59218060737311    3.45633782509953
O         5.16409557565709    1.42130458502064    2.91620942726925
H         4.55995920826204    6.19345458711364    6.75017403293632
H         3.75502468728853    7.62191911345949    6.11716865185060
H         2.81595504205189    6.31413559477304    6.80430393130718
H         2.06993632306438    7.48232832180494    3.50110310944132
H         1.21772405345705    5.94657745102400    3.61296310449639
H         1.41528086592451    6.95491810903061    5.03269338114612
H         2.78147774554831    1.54025708821097   -0.10584776449248
H         4.54022418110830    1.50949210468133    0.07181963127374
H         3.50427921213275    0.89018374559677    1.37625298395948
H         2.53070712726763    3.92867819790718   -0.44774728595301
H         2.63314845911532    6.08748895769972    1.25533958534304
H         7.98134944332714    1.46732275135364    3.71452051020736
H         8.03067890643424    1.43057953243797    5.48134902076058
H         6.60016769178346    0.82344971583917    4.62957670524408
H         8.38724200263276    3.80748083961594    5.82355912208175
H         6.72005180316969    5.99058055603399    5.68291467333052
H         3.75783242397215    0.08419893173017    4.25291512748336
H         1.95908530829174   -0.40207291396008    5.90810697941878
H         0.76946601885208    1.51353304147217    6.97972551116942
H         1.44657195978395    3.83590020170598    6.33413607737287
H         5.85166218826118    1.65009144585202    2.27910491709956

