48
CSD_code = DAYDAI | q = 0 | S = 0 | Stoichiometry = C15H25N3S4Zn | MND = 5
Zn       10.41944705274657   19.56073774388334   22.09089183877915
S        11.96840422065426   20.81428070221994   23.60319988001074
S         8.61750452024191   18.73127060465085   20.56605187717343
S        12.04588806175388   20.81338764808451   20.66102056380090
S         8.53428105046075   18.72688255071293   23.50808020779945
N        11.54882976638826   17.70105509127769   22.10469466789550
N         6.61681041353063   17.75752153263291   21.97914434501626
N        13.77211848371503   22.10541513066158   22.17728627970119
C        11.88526661712521   17.11808987282568   23.24863548483539
H        11.56535270109431   17.62391115588347   24.14945999126730
C        12.60188680360837   15.93479948921147   23.29838362796302
H        12.85442729278191   15.49510441851818   24.25024793360275
C        11.91132751853031   17.13121986487451   20.96201401975910
H        11.61181348052657   17.64752183433752   20.06005154465830
C        12.98205022192003   15.33672219711011   22.10727447366361
H        13.54188435585163   14.41300687432027   22.10821058018097
C        12.62891298956536   15.94852925599766   20.91478098766223
H        12.90286171650884   15.51984658158642   19.96380696007868
C        12.69745323696595   21.32003138989311   22.15010661308764
C         7.80876984419521   18.34946373159615   22.01471121718937
C         5.95924351396129   17.45769103954567   20.72286297753433
H         6.23057763870844   18.22731229564263   19.99642445738284
H         4.88073711807421   17.49474551136561   20.89126069119538
C        14.36423179743765   22.53582096769778   23.42858391663273
H        15.43282106704132   22.68631452298397   23.25865943450765
H        14.23193063551701   21.74102926780708   24.16628876608803
C        14.39079179785703   22.58223187508710   20.95644982838325
H        14.84579695045286   23.55246097497663   21.16753637301665
H        13.61252794872069   22.71324921582386   20.20096337862919
C         5.91184903657468   17.40058220815656   23.19456987454659
H         6.64763769509903   17.13275632947306   23.95635066927953
H         5.29300111434357   16.52680373577032   22.97794274760135
C         6.36898950195122   16.08843032388554   20.18920325121574
H         7.43796028768421   16.07672481847691   19.99425599976464
H         5.84289805808749   15.88134566339231   19.26178594942032
H         6.13456516421293   15.30714398137966   20.90905731026824
C         5.05042047154145   18.55308514968940   23.70179822838695
H         5.68236148064708   19.40211454075490   23.94727305601479
H         4.51433850959561   18.24780378846388   24.59582252465631
H         4.33004892082458   18.85884825544872   22.94624274364839
C        15.43990347201160   21.60217493340588   20.44029222625199
H        16.21107184407346   21.43203947987640   21.18854784147939
H        15.90356688894925   21.99776908180672   19.54126320095632
H        14.96775982930878   20.65315238279865   20.20095137102853
C        13.71880888749045   23.81933410760363   23.94201000837978
H        14.19883555327907   24.13017006421392   24.86548268694742
H        12.66446176789264   23.64573953343315   24.13866417769801
H        13.81217270044620   24.61862828079080   23.21010321499531

