85
CSD_code = DAYGEP | q = 0 | S = 0 | Stoichiometry = C32H44N4P4W | MND = 6
W         4.98582826358806    3.96291857674030    7.18043928964302
P         2.98830425659490    3.37784446045807    5.88590316863566
C         2.87213281271535    1.57190484926586    5.66569857480226
C         1.82901995490102    0.80845964048619    6.17588887590927
C         1.83878319977829   -0.56879813675912    6.03985343522569
C         2.88965196613298   -1.20028748075323    5.39896581108318
C         3.93851474283423   -0.44765549201628    4.89670497388800
C         3.93308289596934    0.92643932783895    5.03476441611487
C         3.07618274387762    3.90224855607991    4.12451371409371
C         1.21874234969394    3.82155308960033    6.14617380384994
P         3.93459852492859    4.19183884641250    9.37046680631018
C         2.19789606774511    3.65678089224269    9.56434581427308
C         1.15460585318044    4.49738912651713    9.93557014055504
C        -0.13632043691885    4.00619276595951   10.03524046853823
C        -0.39864838897621    2.67224034953788    9.77553448141107
C         0.63452375792522    1.83042985809674    9.39329772241401
C         1.92006162859469    2.32294008789389    9.27206702552647
C         4.67030016696509    3.05684444661452   10.61952868739478
C         3.96196076002606    5.72357057261208   10.39952529078121
P         7.20691764884434    4.24668130791914    8.13256734571397
C         7.94828680756892    2.64412310557664    8.58229092796187
C         8.30828997528611    2.27607190391402    9.87271947018313
C         8.80069305832720    1.00719915645564   10.12534908060656
C         8.93262516383003    0.09159386322524    9.09681624991061
C         8.56550421590774    0.44643924267866    7.80869112558507
C         8.07149296483243    1.71020814677267    7.55538363493068
C         7.70014862475464    5.30136373419903    9.56600036034170
C         8.50253546506575    4.83549706838753    6.96442100367106
P         4.86397195437748    6.28103931371761    6.46295598710324
C         3.21162583593524    7.04180670462935    6.24507427086883
C         2.25632603119143    6.70722851980525    7.19722420618941
C         0.99697630476345    7.27664185180982    7.17592094835304
C         0.66864099353669    8.17774984285058    6.17631264698083
C         1.60384402445591    8.49770585928159    5.20624218048758
C         2.87100801078339    7.94127717849811    5.24131407267628
C         5.59215588083212    7.65439544604141    7.46363654616510
C         5.68796362230317    6.66446972152255    4.86732956067470
N         5.88838389178807    3.63886403019070    5.57709066592754
N         6.46354123573536    3.43440375117055    4.62807210365037
N         5.08697864126591    2.14806270882476    7.64468393712144
N         5.14159402765677    1.05732242175899    7.91308680348161
H         1.00694244225254    1.28473039319190    6.68854041648257
H         1.02150286759145   -1.15191105175649    6.44138630078986
H         2.89600852789904   -2.27594082135050    5.29853609618828
H         4.76765572885767   -0.93498731067907    4.40469034836111
H         4.76483321313892    1.50480917452263    4.65737237706024
H         4.04542742078535    3.64398516786354    3.70282959533444
H         2.94745577010290    4.98512821897128    4.08787911410612
H         2.28729978986130    3.42055723659823    3.54566221694790
H         0.90662889901632    3.62772929997650    7.16897861291868
H         0.59728947685438    3.25339060786235    5.45350017569598
H         1.10159979006331    4.88434342396797    5.94203159199930
H         1.33938473979511    5.53963828676094   10.15150558851708
H        -0.94073682075471    4.66831989677279   10.32366749420551
H        -1.40530814897236    2.29062282703753    9.86538912770099
H         0.43609319908873    0.78869972533276    9.18582212957058
H         2.71698340356626    1.67149059788517    8.93788545964871
H         4.62035960234433    2.03110010837142   10.25882477379572
H         4.14472415152301    3.13527381940588   11.57255996904373
H         5.72100089329302    3.31199055692781   10.74968811375338
H         3.47105567828023    6.55204892545481    9.89202231212641
H         5.00488134840712    5.99306167682214   10.56267350719935
H         3.48255849018313    5.54350743469572   11.36248550170955
H         8.21254034148651    2.97387031030798   10.69238982780252
H         9.07889058317635    0.73291901970719   11.13343247208939
H         9.31335758735183   -0.89879088060056    9.29948910230954
H         8.65512409387062   -0.26782630883319    7.00351017965544
H         7.76573831868071    1.97892342210099    6.55279430502858
H         7.13380812423285    5.04122282443657   10.45765076664003
H         7.48987716082776    6.34074034485576    9.31772191138296
H         8.76647652409232    5.18745589370961    9.76356602362720
H         8.43484497515169    4.27871527646655    6.03181421688290
H         9.49389087191113    4.69637202305200    7.39749198689909
H         8.33994708450282    5.89258491704314    6.75421396526071
H         2.51149733939128    5.96155177103445    7.94076147508690
H         0.26742330116452    7.00703764590118    7.92652108047669
H        -0.31534691483302    8.62241699225302    6.14695737538849
H         1.34556044977017    9.18951706629780    4.41699480520143
H         3.58460467680706    8.20978758448436    4.47678709305321
H         6.67402236811594    7.53038129575829    7.49419728475541
H         5.19984354208443    7.61488844758745    8.47785674566001
H         5.34835355861069    8.62005020320572    7.01861684379103
H         5.15204402264980    6.18011544919375    4.05229044557770
H         6.69294763991524    6.24420357577943    4.90434433915701
H         5.75548838875093    7.73817571556763    4.69300130190104

