39
CSD_code = DAYKOD | q = 1 | S = 0 | Stoichiometry = C8H24Cl2CoN4(1+) | MND = 6
Co       -0.68238271895928    7.84500956613869   16.13994544497007
Cl       -0.03272009240777    5.77307304227818   16.61254314930154
Cl       -1.33221742487850    9.91904011490538   15.67722122659629
N        -2.04618813657217    7.18678661395313   14.88267751865089
N        -2.11279390912941    7.67307367755101   17.46164828769406
N         0.67700439090829    8.52617154109282   17.36902556041215
N         0.73673196023158    8.03883710286566   14.79001539798164
C        -3.35218462370675    6.85583819779038   15.52375314773980
C        -3.42026336676598    7.72583463252984   16.78642844278517
C        -3.38347107998152    5.36764295279123   15.86098296986624
C        -4.49287622768709    7.21112260656781   14.57192713820100
C         1.68899255410558    9.28712261083765   16.61730393911237
C         2.04107475686653    8.50510139255159   15.34423571308468
C         2.72819265913383    9.41990998162429   14.33208794174490
C         2.91859692839916    7.29432564808618   15.64988845791224
H        -1.74879198747204    6.37332041323791   14.34078557415964
H        -2.21575401797968    7.95375994985174   14.22592948326595
H        -2.11277282036449    8.37075475479103   18.20615884931200
H        -2.00704418673922    6.75611203183352   17.90431539204073
H         1.12789606094524    7.71526131816536   17.80158458480193
H         0.33125063172375    9.11930961593918   18.12390765515212
H         0.40814212524379    8.75852899779795   14.14005745850149
H         0.91192466624458    7.18910184880131   14.25049314590155
H        -4.22336753554422    7.39005614031392   17.44777835302335
H        -3.60917195880712    8.76195175249271   16.49854712292179
H        -4.26446323928974    5.13045209917360   16.44967262166841
H        -2.49976834047502    5.06796381419301   16.41671750529326
H        -3.42523259230432    4.77538372637289   14.95007625348049
H        -4.42413066431068    6.63126024130862   13.65473964563344
H        -4.47573352729528    8.26958294692000   14.32104317306763
H        -5.45003355080517    6.99051560363657   15.03528430589005
H         1.25044679733385   10.24754829050590   16.33897209415330
H         2.58150749053740    9.46724238954591   17.22251521695743
H         2.93694359329618    8.88491770422646   13.40882763365768
H         3.67274175748291    9.77770903752010   14.73123473427233
H         2.10866964551411   10.28485927129229   14.10496221804050
H         3.81488929514563    7.59973856090684   16.18126222177958
H         3.23008821889959    6.81168356420516   14.72676202641303
H         2.38806846946372    6.56129624540430   16.25048839455935

