53
CSD_code = DAYQAY | q = 0 | S = 0 | Stoichiometry = C16H22CdN8O2S4 | MND = 6
Cd        6.24858553157257    4.21620466065868   -0.00028268878834
S         8.57688880789300    5.38269377679454    2.57052064557223
S         3.87069747966374    1.68063903922159    5.06512053880887
O         7.02217415469808    4.02228826936821    4.24847077839031
N         6.42909733790149    3.85560617902499    2.13418235944893
N         5.55311218288794    3.13622585301891    2.86354525015670
C         7.31010393682984    4.39291109817930    2.97020900139975
C         5.91558111438849    3.24288641704628    4.10679644943192
C         5.28893079388777    2.65935917008782    5.24453148629631
C         5.66768533800205    2.76834911449757    6.55846448093197
H         6.52535195097890    3.33467738696370    6.87299425767299
C         4.81348190378700    2.06260868865802    7.42386346595685
H         4.94331685027080    2.02581793916802    8.49053820091326
C         3.80443492416841    1.43162541471850    6.76485517757199
H         3.01976546684812    0.82843269227107    7.17583302324489
N         6.19665153797310    1.96877750024435   -0.39718975261901
H         6.01605715105899    1.44432859628662    0.45574652872455
H         5.43685773184691    1.78577021162113   -1.05433755390752
N         8.45219902605063    3.75002045957261   -0.27839508912696
H         8.79348778819132    4.09252250443963   -1.17365624512124
H         8.95790447546842    4.23211396743931    0.46765419160239
C         7.49097043326672    1.60570347293698   -0.96305370775357
H         7.52096260047517    1.95203048239660   -2.00054824244481
H         7.66507768456721    0.51994320246084   -0.95561936808603
C         8.61058160862266    2.30414173191120   -0.17915714938369
H         8.52722243607024    2.02338361148657    0.87512858968276
H         9.58487078681409    1.95946845365477   -0.55459859973391
S         3.91976175174747    3.05023887714686   -2.57007995588920
S         8.62998205238376    6.74648939725944   -5.06495350395995
O         5.47415706111829    4.41055839529146   -4.24855727227005
N         6.06863804682374    4.57568931963564   -2.13461486785389
N         6.94478898267682    5.29458735411233   -2.86415237219893
C         5.18637217658815    4.03998063466750   -2.97022393568048
C         6.58140737174414    5.18900325128077   -4.10718876027447
C         7.20832480441979    5.77255374800914   -5.24473781330894
C         6.82818982345223    5.66675899734982   -6.55849576035355
H         5.96870565722924    5.10334008261344   -6.87320172830093
C         7.68365554324493    6.37149149300630   -7.42351185514895
H         7.55311738770020    6.41025729836371   -8.49000028310313
C         8.69497360967078    6.99863519592075   -6.76441698864618
H         9.48129720221446    7.59993441364418   -7.17503001644362
N         6.30153978439167    6.46385002916932    0.39646623574936
H         6.48197791520645    6.98837047548008   -0.45646662472154
H         7.06177854413643    6.64630657383805    1.05327004213440
N         4.04493826880847    4.68422695359144    0.27822225631020
H         3.70347674123289    4.34151282324991    1.17332896963563
H         3.53890275200468    4.20268114832929   -0.46794923995676
C         5.00779191514395    6.82772938631048    0.96311973438389
H         4.97819623487854    6.48114102999716    2.00053870250398
H         4.83429484864434    7.91361615534971    0.95609267677853
C         3.88727482106231    6.13025059591683    0.17964077869967
H         3.97008299993125    6.41145567969493   -0.87457295760456
H         2.91342266936054    6.47531079664407    0.55585851068536

