98
CSD_code = DAYTAA | q = 0 | S = 0 | Stoichiometry = C46H43ClCuN3OP2S | MND = 4
Cu        4.13945872939873   21.69906841369351    3.39299894522377
Cl        4.61406399235879   23.50045673593839    4.70584321293211
S         5.80077846859671   19.89948981352316    3.85221671070393
P         2.07801535974564   20.83207962744538    3.27237507118171
P         5.04948914665162   22.38565314370422    1.40605606565614
O         8.39344747283646   26.36964510106406    6.28406364792874
H         8.51071139910387   27.26471022195692    6.62518342065480
N         8.41488167608962   22.57089333432117    4.87084735498852
N         7.23759489684546   21.95195774519842    4.65396484748722
H         6.33916899963403   22.46503099151757    4.79483279014192
N         8.43062441032356   20.18219886613356    3.84529843165997
H         9.21940193562657   20.75662810812398    4.11726366126490
C         9.59753170104668   25.80814872373095    6.01750774101181
C        10.78386095451880   26.50242577084916    6.21871361054662
H        10.74666140196046   27.51502959104794    6.60019518648795
C        12.00214277761139   25.91198661832237    5.93675266770437
H        12.91423151888884   26.46658702641222    6.09870201239036
C        12.04841454920617   24.61521606722900    5.44839502186942
H        12.99968511543789   24.15495462207758    5.22790116877477
C        10.87561567230640   23.91810817839883    5.24631466800124
H        10.88925130758984   22.90975929928289    4.86472648057034
C         9.63331711214409   24.49092821090788    5.52352974014850
C         8.39897601628657   23.77616686024780    5.29750048242188
H         7.46703701756430   24.30542699699065    5.49051129080478
C         7.23693535896571   20.71631159648183    4.12630740793959
C         8.66233686165486   18.84317201749239    3.37578019625979
H         9.38395695308635   18.88354864318089    2.55368556543692
H         7.71091672410760   18.46244197543106    2.99834607679151
C         9.18150679507784   17.93777091762123    4.48900051901101
H         9.35356749628393   16.93662307187234    4.10417533178238
H         8.45087747935217   17.88290019637881    5.29165316331740
H        10.11567890976679   18.32290785821989    4.89222225621720
C         1.49775904147051   19.59978310234389    4.48420188762693
C         2.46747686147708   18.78139590966854    5.05828551913328
H         3.50385222549378   18.91126340989181    4.77512578200475
C         2.10356782302538   17.81996481322772    5.98287619094089
H         2.85793557960980   17.18571792837605    6.42472844350577
C         0.77431329374371   17.67886737818136    6.34730175579849
H         0.48902379358714   16.93217424541134    7.07400651994359
C        -0.19017897965779   18.50073013430441    5.78663389067849
H        -1.22566186904960   18.39368427828959    6.07648817089430
C         0.16532413469802   19.46138844422477    4.85715888672054
H        -0.58939984081881   20.10377156777663    4.42582494880725
C         0.73567687823914   22.06235731211366    3.29369273146678
C         0.92393765505176   23.16059618340815    4.12950128732907
H         1.84034236152166   23.23983958287207    4.70031126911931
C        -0.04226831687672   24.14616849936390    4.21159427341661
H         0.11108099604719   24.99797487128649    4.85750176001997
C        -1.20030943768598   24.04120535790840    3.45829166983415
H        -1.95543615482490   24.81165516035412    3.51704712365525
C        -1.39139232383605   22.94983736241361    2.62544549071039
H        -2.29591915901782   22.86942752226419    2.03944224037224
C        -0.42922187255225   21.95982281422963    2.53955882594674
H        -0.57804603039539   21.11079674524927    1.88621509819368
C         1.83415285435179   19.97606306908381    1.68622578316502
C         1.85014995246407   18.58920540536748    1.58750169933973
H         1.92732201359678   17.98825159474717    2.48250672261112
C         1.76459015071936   17.98348846195571    0.34694556379451
H         1.77274014045033   16.90539206391240    0.27645894809114
C         1.66665528607427   18.75140623538739   -0.80101435671596
H         1.59409159021657   18.27483191046746   -1.76738285364680
C         1.66918807257697   20.13407508450305   -0.70956976955560
H         1.60344292850209   20.73671775177476   -1.60361111861048
C         1.76738433438170   20.74475542943979    0.52480134363314
H         1.78497441540070   21.82495722323094    0.59505941092687
C         4.95689878442395   21.27232636910189   -0.03697501809184
C         5.09810259119902   19.91315517675241    0.23459229964873
H         5.24776865172821   19.59202858962352    1.25784435239243
C         5.03481104333980   18.98713994094977   -0.78841219558518
H         5.14851247955493   17.93523854937613   -0.57088255848956
C         4.81502241719789   19.40986102865615   -2.08924896242892
H         4.76268683969367   18.68822203735768   -2.89143748807641
C         4.65150699338631   20.75813733938700   -2.35996710626089
H         4.47001500372966   21.08686531304451   -3.37355378504201
C         4.71854442360111   21.69035362661894   -1.33998119765127
H         4.58041001886941   22.73976004425184   -1.55788314692463
C         4.31483153912728   23.93610215337392    0.79883822112562
C         3.05485196858042   24.26411667912462    1.28624513894174
H         2.58681557318037   23.61292969121464    2.01500904117515
C         2.42030397839903   25.42032921081965    0.87114206801561
H         1.44269967929678   25.66681599332892    1.25980061237187
C         3.04802646042191   26.26055922974285   -0.03315323919094
H         2.55885252157634   27.16699364404415   -0.35884642496619
C         4.31125240710824   25.94738774594258   -0.51171752816123
H         4.80340169517816   26.61077016028984   -1.20871827857615
C         4.94827486185626   24.79192390072387   -0.09850780542543
H         5.94069301167848   24.55668810932553   -0.45973477482952
C         6.81563456903267   22.80863127811915    1.45914646886817
C         7.80469044279290   21.92289595599082    1.04395900626288
H         7.52835487264489   20.98442844705175    0.58274066922445
C         9.13769450801216   22.24773212753126    1.22206678030734
H         9.90375339833106   21.55898052562804    0.89423191648480
C         9.49293871379855   23.44889116297699    1.81273796032200
H        10.53436861822988   23.70093138242781    1.94874073366145
C         8.50911399630268   24.32543465790329    2.24345455825943
H         8.78561949818190   25.25631903205909    2.71637630082058
C         7.17607658831551   24.00318040239302    2.08307243247522
H         6.40328524111445   24.66397729404674    2.45170106508240

