121
CSD_code = DAYYUX | q = 1 | S = 0 | Stoichiometry = C62H50AuN4P4(1+) | MND = 4
Au        2.75063869002495   16.11231535986078    4.01124485936128
P         1.39181313323818   18.04625608896648    4.54221683426279
P         1.60805665947564   16.04354651789552    1.81676233918104
P         3.31071230813578   14.29913403275950    5.52751091468616
P         5.21965315148179   16.44302567954297    3.64214036728876
N         0.04435265914682   17.60697782114346    3.59121694113675
H        -0.60063769338879   18.40061332538661    3.52568674020447
N         0.15534695675514   15.22389615980246    2.05072870582213
H         0.07898153970660   14.34349364509502    1.54749103987006
N         4.65077161166739   15.00008564257176    6.30480982354770
H         5.44325467856434   14.96564141271672    5.65703135384292
N         5.87146228571306   17.22201426526466    5.00495063238998
H         6.40410026051688   18.05587470311082    4.76022461783588
C         1.70688612772083   19.71961366907491    3.94094391991377
C         1.25554878902261   20.18347836415715    2.71096170265972
H         0.63378914591397   19.56289402761879    2.08393362351011
C         1.61066173758473   21.45238593069964    2.28701423461868
H         1.25099337064027   21.81328928596673    1.33509193728514
C         2.42085445959411   22.25351373273053    3.07434877053473
H         2.69097575946237   23.24365008990114    2.73945358857736
C         2.88677529961684   21.78546785664460    4.29468132685404
H         3.51796413393592   22.40853261455478    4.91069071979660
C         2.53895791602467   20.52016176884704    4.72463930228992
H         2.88945821391280   20.14658891107082    5.67833631525569
C         0.77092484644268   18.30508900936442    6.23554632222408
C         0.80646947465305   17.17817620135921    7.04945785982713
H         1.24720653944370   16.26611739962047    6.66139697920707
C         0.28858696619123   17.22446665863114    8.32914595191863
H         0.30989090309949   16.34157324955253    8.95085488795500
C        -0.24848377723647   18.40982872000221    8.80477251000315
H        -0.64612081349148   18.45729260294550    9.80686786246955
C        -0.27525545423121   19.53858106782406    7.99945507080135
H        -0.69130011371506   20.45996234431131    8.37705696174054
C         0.22438075674108   19.49239896613566    6.71098764055115
H         0.19369235440288   20.37071942958396    6.08137361963103
C         1.20411820097860   17.35475091625162    0.62985054112170
C        -0.08692991508219   17.60037604619166    0.18104166909129
H        -0.90043506238556   16.96737470056149    0.50661550185256
C        -0.31680479724856   18.65641594206688   -0.68331437978860
H        -1.31728888120275   18.84822653328021   -1.04175258117333
C         0.73122294521790   19.46779573210120   -1.08960754132700
H         0.54350644104552   20.28883196897460   -1.76490914943143
C         2.01751771837345   19.23155945478952   -0.62830428500640
H         2.83362679399608   19.86723656998370   -0.93798242305144
C         2.25359194053383   18.18134530183957    0.23749405958858
H         3.24754695779130   17.98905944427095    0.62068542440826
C         2.46416717785136   14.81898204899260    0.77777109964667
C         2.92541039894535   15.05480819367155   -0.51107024693234
H         2.74874656587445   16.00829655373639   -0.98687251959934
C         3.60575642642435   14.05636166254526   -1.18759767965074
H         3.95744157836438   14.23896423897044   -2.19183488860731
C         3.83462442084235   12.82898358209129   -0.58720174864606
H         4.36352834025059   12.05633564265205   -1.12411385210823
C         3.39002675488047   12.59482454348274    0.70523536648572
H         3.57951667971421   11.64775951116729    1.18902573241636
C         2.71635380856348   13.58986350720385    1.38589954170623
H         2.39255094083284   13.42664947975333    2.40804522154479
C        -0.66345147831639   16.43416817694351    3.99706253302832
C        -1.54515759625228   16.48034987368863    5.08732739364435
H        -1.69098796315492   17.42328891064827    5.59620525467609
C        -2.25597670436840   15.39546567997722    5.50595747618880
H        -2.93477700832870   15.44930881099336    6.34220896629860
C        -2.06342674440566   14.13931435340537    4.80014825292374
C        -1.25445474636039   14.12329343249749    3.64571158787500
H        -1.19401941403320   13.20606242592369    3.07886254535810
C        -0.56495212623017   15.24930777124415    3.24122498994528
C        -2.70069761799832   13.30627003819583    5.63160971930240
C         2.28570182292331   13.68079458457772    6.89107817314434
C         2.84632746332889   13.15528781533944    8.05084370429492
H         3.92107845808135   13.14858342109695    8.16987802954763
C         2.01559537273211   12.64916715332001    9.03230458644579
H         2.44083560983790   12.24400434287796    9.93836297304181
C         0.63896900376797   12.64867674172888    8.85263810990776
H        -0.00156578416868   12.24570226536914    9.62211678439730
C         0.08294385859138   13.15450633215838    7.68909012769172
H        -0.98723557482853   13.13936338900920    7.53812832298466
C         0.90811575596995   13.67371257608951    6.70786229113988
H         0.49202512031376   14.07698246524719    5.79183809713708
C         4.01364552706421   12.73209649258527    4.94408232009033
C         5.35740184123501   12.38495828931163    4.97726793567286
H         6.09598358029458   13.03490350377073    5.42240435463593
C         5.75968493185091   11.16943702012974    4.45026083949230
H         6.80427856884659   10.89862754429149    4.48117547851430
C         4.83549681662906   10.30369093823287    3.89161224351813
H         5.15998215442283    9.35925138596405    3.48203981892875
C         3.49060598154100   10.64235854964059    3.87036976587186
H         2.76454996413012    9.96022876033165    3.45318703684947
C         3.08231405413686   11.85280509115255    4.39293266046041
H         2.03246839908199   12.12393431871187    4.40183041455564
C         6.47447626413011   15.18119884059080    3.27177407229159
C         7.68120464505190   15.07182623787962    3.95327924371477
H         7.93612205423698   15.78466947964870    4.72557261501920
C         8.55272883354246   14.04705731778045    3.63010329283771
H         9.49477699193460   13.96250370939454    4.15091069094284
C         8.22176311831100   13.13232864666133    2.64270120483558
H         8.90835699032782   12.33677226071108    2.39656063492089
C         7.01166043755282   13.23286401273230    1.97379068099701
H         6.74840363681485   12.51644251963242    1.21028753251843
C         6.13520465909477   14.25138976956434    2.29264123167032
H         5.17822491056786   14.33835375308518    1.79347132401974
C         5.49408097965132   17.68879315733292    2.34947809194185
C         4.97690838027315   18.96053265658818    2.59322512082862
H         4.47696528541678   19.16815445859715    3.53243372244709
C         5.08848578924240   19.95034039438266    1.63620996550391
H         4.68989182955183   20.93385464032370    1.83513597635898
C         5.70113500810823   19.67037698748980    0.42445266071176
H         5.79394076628710   20.44288243369065   -0.32362707184607
C         6.19065165189825   18.39904493844306    0.16942394643546
H         6.65957543748080   18.18064760378344   -0.77815804301231
C         6.08456037296993   17.40270131209967    1.12399890397587
H         6.46628848438134   16.41202213693906    0.92244164795828
C         5.08884864657613   17.41977677042141    6.15859009529309
C         4.94243736742066   18.67847717353101    6.69322708377715
H         5.41194516459844   19.53414485666853    6.22954855265558
C         4.16026315107359   18.89120636510857    7.85036345181567
C         3.58445789700063   17.74315485385928    8.52599110749400
H         3.03122762719159   17.88328322194540    9.44075541073448
C         3.74588919425344   16.51153424453020    7.96627578151154
H         3.33070865381706   15.64737205440043    8.46260854885373
C         4.47901895613432   16.31193296621285    6.78817832534211
C         3.60433697721147   19.90329964212686    8.52750227038901

