59
CSD_code = DAZDUD | q = 0 | S = 0 | Stoichiometry = C29H23N2OPRuS2 | MND = 6
Ru        0.49837991823870    3.58786775856419    2.94368825191232
S        -1.22655786059385    2.10745814382486    3.93149005499302
S         1.77302819739355    4.57480752801895    1.07781629988930
P        -0.40520863192638    5.37720686778257    4.05801458072142
O         2.88635106712164    3.28592145392275    4.72068913468399
N        -1.17679770165262    3.47229473533506    1.76800987937399
N         1.21827789165670    2.15962784881430    1.68134948724373
C         1.95867232838044    3.43602425419908    4.06005340013904
C        -1.95690329449548    2.62351663320879    2.46510518994718
C        -3.21568734909150    2.23184397613436    2.00112421334759
C        -3.64907505486555    2.72502721395303    0.79174753391799
C        -2.82371386056941    3.58398660159572    0.06688762269810
C        -1.59712938822050    3.93169127842309    0.59520258139604
C         1.78950334540053    2.89425377948140    0.70607006182985
C         2.30679144096339    2.29902557802413   -0.44706814187792
C         2.22608592267760    0.92885311515964   -0.56597167890354
C         1.63229893205056    0.18235540113882    0.45141216413011
C         1.13666111938233    0.84127204569592    1.56028972743921
C         0.39474164451528    6.98833549655651    3.78075124716828
C        -0.28677776279833    8.20142435103982    3.76479817855479
C         0.41314314750824    9.38227440684381    3.59270648776228
C         1.78980081953414    9.36315453999232    3.44082763901226
C         2.47232748625209    8.15757909215066    3.45849414759464
C         1.77793318041183    6.97453161353625    3.62750894359827
C        -2.14371427145605    5.66043239084146    3.61127506577698
C        -2.44267215514947    6.28854290175041    2.40382122114453
C        -3.75326182803007    6.37334531074099    1.97383389698656
C        -4.76997049444111    5.81594799897709    2.73324063007633
C        -4.47465938257064    5.17320026193609    3.92422530988980
C        -3.16564748545340    5.08900554795120    4.36333064740256
C        -0.47352300177763    5.33075978818304    5.87931487221848
C        -0.92193078967790    6.43376845339771    6.60129315376978
C        -0.96584939025471    6.38365822268940    7.98144624665390
C        -0.56303629971079    5.23781582941024    8.65006084497770
C        -0.11858175710188    4.13855439777620    7.93524782767114
C        -0.07241632260103    4.18310265244080    6.55276069123749
H        -3.80847020766181    1.55860108115270    2.59883119137880
H        -4.61745433345405    2.44612049304221    0.40381467079451
H        -3.13187960561422    3.97788646632905   -0.88782451780742
H        -0.92274267698416    4.59999077151040    0.07112632814193
H         2.75356991321659    2.92060457514065   -1.20598271714229
H         2.61966837217056    0.43464906962662   -1.44170569442444
H         1.55801385019341   -0.89051616363909    0.38288346927164
H         0.66361021664409    0.31020456867997    2.37884059474674
H        -1.36299012575510    8.22506362200294    3.87091147013612
H        -0.11983546520592   10.32212365564134    3.57519514679645
H         2.32927437062001   10.28873069608046    3.30359927215371
H         3.54466789316054    8.13963237888579    3.33458971570352
H         2.29745553736490    6.02266049699761    3.62776715148098
H        -1.63900766079812    6.70425441960365    1.80889801668514
H        -3.98274171978074    6.86600896755954    1.03998891246949
H        -5.79286550075729    5.87745531657279    2.39187611955039
H        -5.26622275342136    4.72920582362538    4.50982424314616
H        -2.92692273551885    4.57292768483985    5.28370594006750
H        -1.23336025454603    7.32803333417011    6.08075645334161
H        -1.31414527979272    7.24089035057174    8.53915702065342
H        -0.59721669881212    5.20393312447625    9.72904506872362
H         0.19266997261414    3.24399457824380    8.45365084485381
H         0.26304253305321    3.32297721940662    5.98510388490509

