27
CSD_code = DAZFIT | q = 1 | S = 0 | Stoichiometry = C12H13ORu(1+) | MND = 10
Ru        3.32597141502294    2.32426712039547    5.56605297623274
C         5.16775655734701    2.32431284832287    5.28116204248548
O         6.28039745998682    2.32427266292691    5.05937526278116
C         3.11823525989357    2.32425412609325    3.37485543558869
C         3.94574850423608    0.99732229478163    7.30444558489661
C         2.69289759375906    1.61115011598713    7.51756382290578
C         2.44586357228863    1.16528088640011    3.87755722094984
C         5.15508528251743    1.55426881018034    8.02392029425079
C         1.37995425894381    1.61443423786224    4.69238476626309
H         3.87372500407278    2.32425065773982    2.59608927069661
H         2.62537888277635    0.14721327343542    3.56126029405818
H         0.60396651898871    0.98793381723696    5.11004873890872
H         1.77385639591320    1.04411874632372    7.64674654904903
H         3.96167265228020   -0.08396215125176    7.17669737110197
H         6.07137772937802    1.16088262228071    7.58072501844377
H         5.11633397419441    1.17343163317344    9.04944153928249
C         3.94573277200462    3.65118650521238    7.30446131865804
C         2.69288858655897    3.03734255065033    7.51756966593800
C         2.44587940182661    3.48323478116491    3.87756232476607
C         1.37996665578147    3.03409109259819    4.69239353244871
C         5.15506949676565    3.09424658037413    8.02393665052968
H         3.96164511676669    4.73247209074435    7.17672032997006
H         1.77384134158730    3.60436289295453    7.64675271799625
H         2.62541306209609    4.50130615698908    3.56127484271001
H         0.60398840905869    3.66060093625891    5.11006560461058
H         6.07136185567464    3.48766794926905    7.58076970791611
H         5.11629224028019    3.47505676189589    9.04946711656148

