53
CSD_code = DAZGOD | q = 0 | S = 0 | Stoichiometry = C20H23N2O7V | MND = 6
V         1.39175567760933    1.58573670990483    4.10758022640912
N         2.41878561970135    1.03779158897017    2.47800347337058
N         1.98006783765315   -0.06929623960255    1.88128451407250
O         2.71484151220911    2.54726652521175    4.43351125212061
O         0.70259888276904   -0.12898245007787    3.71479600818666
O         0.67533027987151    1.35628646023243    5.67033244927952
O         2.89391095100998   -0.09390516527475    5.31105400855311
O         2.38104203048750   -1.47928397640465    6.97149390676924
O         0.42530220279386    2.42536127213696    3.27790144688764
O         3.71125597034923    4.69104347670098    5.63953211735836
C         3.90439921964092    2.92536096221153    2.46013270163589
C         3.55054193125616    3.28772432600855    3.77978537571865
C         4.12996412413436    4.44178843516635    4.36882812602800
C         5.03065835561321    5.19669351018415    3.64263771217519
H         5.47740101065777    6.07992475088647    4.07071093664894
C         5.37856273461022    4.82597382328895    2.34239017391761
H         6.08647604707285    5.43279656474990    1.79942823992345
C         4.83429072116831    3.71022130042875    1.75803669716500
H         5.10491273965891    3.42764746511390    0.75237098034047
C         3.33662913879479    1.73889707398293    1.90127928542372
H         3.70252202548802    1.39358108867763    0.93348053815814
C         1.03481859647982   -0.62414933401255    2.59266311140835
C         0.28577410167867   -1.82967388625710    2.06033468696133
C         0.02813063037561   -2.79992821159165    3.21705450092003
H        -0.56668296913225   -3.64306115562203    2.87298057825260
H        -0.50632128673672   -2.29287280362945    4.01803916526565
H         0.96990474393401   -3.17457038513160    3.61336815882028
C        -1.04684361828755   -1.28705540240173    1.52315949122984
H        -0.86658928183970   -0.60830780997233    0.69299587161325
H        -1.57112404118288   -0.74085617194411    2.30526431373828
H        -1.67287366031081   -2.10810014676288    1.18017459412451
C         1.07259210144079   -2.51258210308551    0.94482374095618
H         1.27622409488920   -1.80731973685224    0.14539582968374
H         0.50083530702946   -3.34868086245716    0.54825399218396
H         2.02210257490776   -2.88233239196364    1.32179698678702
C         4.19335394824938    5.84494021510878    6.28283706439349
H         5.28061158403042    5.80922678726152    6.40980443470727
H         3.71675164522488    5.85745462151734    7.26157650294593
H         3.91992613902146    6.75249014507225    5.73508798457426
C         2.10735159586877   -0.40898936377427    6.19130073263716
C         0.86289669427307    0.32196928275721    6.42379826064223
C        -0.04778406849441   -0.13762146219487    7.35808772450087
C         0.31190918129529   -1.28093027227527    8.11631751406809
H        -0.36408207103353   -1.66579898060277    8.86189411403228
C         1.50020175792528   -1.88687300279019    7.90399250199824
H         1.85391484483414   -2.75278906588116    8.44160121614292
C        -1.37854594554169    0.53727857249957    7.48816019779546
H        -1.91481717926152    0.14455662662752    8.35406250546934
H        -1.21920519930291    1.61006975021743    7.62454619788658
C        -2.20248935612514    0.32955759161353    6.21260999612999
H        -1.66717549354260    0.73700567725735    5.35269746402509
H        -3.15985187131236    0.83732760345677    6.29922842573357
H        -2.38406251190129   -0.73101182669032    6.04642197023120

