63
CSD_code = DAZJOD | q = 0 | S = 0 | Stoichiometry = C30H27CoI2OP2 | MND = 8
I        -0.60350207113230    6.96883246168064    0.93065768321057
I         0.85045806287319   10.27834487955523    2.08180514873441
Co        1.68369950776266    8.08924544771689    1.06182361745680
P         2.03814047388837    7.41883351176655    3.14092123168710
P         0.98596873722524    6.57817248102359    5.89666280610213
O         2.27671075045534    6.93740209154687    6.49212663157471
C         0.61086648812924    7.40317863621825    4.28433463576968
C         3.59425132882136    8.64829298347573    0.45089456935718
C         2.67423546080098    9.17656895338170   -0.49460780066815
C         1.95780203396716    8.10908721258485   -1.05105443878287
C         2.45334933789688    6.90427737169973   -0.47599780074040
C         3.48794079235682    7.23741580374684    0.42194074774141
C         2.96838288404739    9.40857418783975    4.89572948968203
C         3.96491483221067   10.17890955392493    5.46661457420361
C         5.29066460375285    9.98159813826236    5.12055881794629
C         5.62437219969069    9.00417582709952    4.19721898223527
C         4.63404401677615    8.22870706126276    3.62587217216099
C         3.29830208279052    8.41645802119429    3.97918198946468
C         2.08507310599812    4.70851935429176    2.51247816582688
C         2.48448174409289    3.39263096277106    2.65099156450259
C         3.45192123104877    3.05771876791695    3.58254452083915
C         4.01456206880845    4.04388835693746    4.37488013707772
C         3.61592567950060    5.36201860644381    4.24661213405814
C         2.64143559689335    5.70280071990919    3.31250412244284
C        -0.14126775678663    4.21223300129619    4.75901202362831
C        -0.26109884840439    2.83509717119540    4.70438425563882
C         0.50309420115954    2.03158451325041    5.53431294697826
C         1.39549297542950    2.60513950572294    6.42481651348846
C         1.51981332954500    3.98055923542214    6.48030624442361
C         0.75785611957222    4.78886555420805    5.64626669148145
C        -1.74880564773608    6.82207651642136    6.56344109294353
C        -2.77423609476459    7.27475548776157    7.37249724090888
C        -2.48988510516549    8.00535927139086    8.51614351497424
C        -1.17674704868205    8.28372111572141    8.85772444445126
C        -0.14736578323956    7.83256107767774    8.05133941097940
C        -0.43224176460310    7.10529213353773    6.90449763079407
H         0.29067451372125    8.43019788423978    4.48965334548677
H        -0.22265777741773    6.89079525384295    3.79983468830325
H         4.33811122425684    9.22044619790392    0.98532568041476
H         2.57940397685417   10.21639464143123   -0.76589323238433
H         1.22185678110389    8.17474151633089   -1.83779576692616
H         2.17175262148275    5.90537248088142   -0.77419727110449
H         4.13120928107131    6.53024199508862    0.92396422979266
H         1.94177803228391    9.59065740018958    5.17274330638898
H         3.69945913087831   10.94143991933693    6.18275092819820
H         6.06419972401867   10.58907731268427    5.56593110941358
H         6.65671736928148    8.84529672799397    3.92030949691275
H         4.90185745001153    7.46001261927621    2.91237429446872
H         1.32814230827195    4.95522652541161    1.78245843309033
H         2.03803840246987    2.63051125935274    2.02999527425766
H         3.76704397501473    2.03070245537453    3.69062030671456
H         4.76839183041367    3.78804631821782    5.10449486649265
H         4.05225363283166    6.11580046637705    4.88259225884284
H        -0.74156914232308    4.81697466521002    4.09543772774607
H        -0.95592005656172    2.38940283754498    4.00827613445449
H         0.40254140632335    0.95738665265179    5.48596642553651
H         1.99217173128491    1.98141698263189    7.07400716983981
H         2.21509086464132    4.45180202312119    7.16059412413510
H        -1.97120939960547    6.25041391540633    5.67486343434314
H        -3.79928484060826    7.05981245463196    7.10962563570643
H        -3.29602493569853    8.35802986404000    9.14217592824684
H        -0.95625317693619    8.85220341054625    9.74909259722723
H         0.88661554797662    8.03390024441711    8.29286316182659

