69
CSD_code = DAZKUL | q = 0 | S = 0 | Stoichiometry = C34H24CdCl2N4O4 | MND = 8
Cd        0.70656962008404   11.73552416476428    8.91577344932329
N        -1.09142037782706   10.19573783401877    8.62499088737468
N         0.89624735299818   10.15887791413670    6.86130292927586
N         0.14754630927643   11.84969275561075   11.43853546463028
N         1.62284937390193    9.98387494244979   10.24328929154904
O         0.26820538330084   12.93854628310916    7.10993686485952
O        -1.25454108467879   12.97556466129592    8.70070066994993
O         1.88566726835946   13.40047167200030    9.77694283686698
O         3.01903835652970   11.85539067815042    8.69166090019617
Cl       -4.40805103979238   16.53827455326890    4.00493256936312
Cl        8.05326386194521   15.73298710174333   10.77096400661361
C         1.92324522286250   10.40095046407891    6.06809517900343
H         2.89888448357019   10.29990241990006    6.52447023902470
C         1.78177521911984   10.77638061276446    4.73902324225407
H         2.64879802991627   10.97830366165891    4.12969491549907
C         0.50215708482244   10.90658234383540    4.22621229020419
H         0.34517032914768   11.21765576586813    3.20323636223422
C        -0.58008250357902   10.64905124836910    5.05011903509952
H        -1.58642263380254   10.77961196690647    4.68360772961038
C        -0.33976385551591   10.27899049438651    6.37205325256851
C        -1.42513988752647   10.04841269302029    7.34254136448598
C        -2.72291607603016    9.70805499402450    6.95960102643751
H        -2.97142955177865    9.56413647622571    5.91983871111252
C        -3.68785506693481    9.54456346866103    7.93736031289444
H        -4.70210963421263    9.28987632162460    7.66566864114582
C        -3.33042260286014    9.71369137039036    9.26576975843871
H        -4.05688027163644    9.60082724044149   10.05519062323354
C        -2.01295278607859   10.03547734905540    9.55666568922895
H        -1.67429272586447   10.18010533883187   10.57400565400406
C        -0.50484372592275   12.93517298902865   11.81125021668724
H        -1.47615031543970   13.07480939801489   11.35586363300047
C         0.01084534787399   13.85623683977675   12.71301068496907
H        -0.55099343183563   14.73770556746558   12.97969505206302
C         1.27053377604983   13.62580202059597   13.23971182578974
H         1.71986838258644   14.32826820841081   13.92710530931010
C         1.95834778144842   12.48629792097006   12.85891701987525
H         2.95576890618200   12.30273777981945   13.22730943002397
C         1.35961902667583   11.61884455867093   11.94748539003971
C         2.03765728494560   10.41470122752582   11.43467424636500
C         3.05165615395954    9.76174027867581   12.13613254377316
H         3.35586763108097   10.10549937183682   13.11235048075036
C         3.65312303142498    8.65411829468598   11.56571633816055
H         4.44562415816224    8.13519238899909   12.08537439006613
C         3.22149420520852    8.22498823024535   10.32043540741903
H         3.67069610122647    7.36908031419578    9.84155250591461
C         2.19637440328074    8.92526878954980    9.70169524654041
H         1.81667660061094    8.63834237397572    8.73015104669659
C        -1.72735795430343   14.13065721335069    6.68527081638857
C        -2.97233780663647   14.55043313241508    7.13764381175439
H        -3.27464835497050   14.28548796041594    8.13938315117163
C        -3.80130591704316   15.29308023908306    6.31788627980232
H        -4.76842143302288   15.62568244377402    6.66248874169986
C        -3.37491930642768   15.61152333546356    5.03778019647080
C        -2.13626283479700   15.20051227603551    4.56962331105010
H        -1.82334275421694   15.46254985375410    3.57054716091909
C        -1.31579988666234   14.45939861166762    5.39895350726184
H        -0.34382259999247   14.12620407437965    5.06763724014344
C        -0.83785014098292   13.30254499138099    7.57120835756947
C         4.23651407034933   13.62584637142458    9.69429678977853
C         4.20515626660074   14.76284723450522   10.49328361918854
H         3.24830670325369   15.12333154095128   10.83971484413213
C         5.37651365191207   15.41544168079924   10.82822512588501
H         5.36086351168453   16.30038503257480   11.44575905542727
C         6.58287132863246   14.92141197878679   10.35603487378303
C         6.63280339070118   13.78909927277383    9.55778677087647
H         7.58278767247982   13.42374774778435    9.19899114280838
C         5.45471561574770   13.14408020057368    9.23092432699218
H         5.45934674441057   12.26037701144207    8.61119876668245
C         2.95738691805333   12.91433445366598    9.34894744630269

