55
CSD_code = DAZRAY | q = 0 | S = 0 | Stoichiometry = C16H32Cl2N4Zn | MND = 4
Zn       -2.00635691118829   -4.35847861932302   -6.80680202251173
Cl       -1.01333326557640   -2.63595692811733   -7.79553753304447
Cl       -3.57847154261367   -4.15345509772104   -5.20176902792980
N        -3.28299889953952   -4.95621025771079   -8.43006738303473
N        -2.91166814216162   -7.15870376535693   -6.03057442733190
N        -1.33594292596807   -7.39680343853076   -4.33138200318219
N        -0.96945272336277   -5.97486169712624   -6.17838850443711
C        -4.18438314367050   -3.83147893857726   -8.72686374830658
H        -3.57910969961997   -2.92330273308898   -8.75709979641465
H        -4.93732361671911   -3.72111011630906   -7.94773102887223
C        -4.77117164544221   -4.11016468654827  -10.11590154981507
H        -5.70862312723743   -4.66198835988092  -10.04005108262867
H        -4.97380619384850   -3.18128363516312  -10.64400682219090
C        -3.68515274354768   -4.94685184451780  -10.80848942704264
H        -4.08096163855386   -5.90136250381923  -11.15690606749362
H        -3.26217809732921   -4.43166722999846  -11.66811396696692
C        -2.61373302744644   -5.15084806302054   -9.72219320801764
H        -2.13746722364088   -6.12870718320881   -9.77656500630874
H        -1.84228911096901   -4.38360718820597   -9.80674216462003
C        -4.04575851508556   -6.13748105293202   -8.01848517923216
H        -4.62549907939434   -6.52997864498767   -8.86101031855491
H        -4.73349008074865   -5.82167596642027   -7.23318058821478
C        -3.16388104924406   -7.26320145079889   -7.45637154563438
H        -2.20375609481118   -7.28458448758919   -7.97645547343605
C        -3.90457887604883   -8.60514287442103   -7.51791093929423
H        -4.43564298453038   -8.75881731689664   -8.45431570854797
H        -3.19198795224137   -9.42070723273753   -7.38628967764461
C        -4.84086328924100   -8.51724960101617   -6.31154031117019
H        -5.08576312329983   -9.49990030410835   -5.91267514629542
H        -5.77104021938772   -8.02448463925616   -6.58935527945699
C        -4.05899602332662   -7.66771954814977   -5.29581572651073
H        -4.64623789595210   -6.82229081815346   -4.92209201384580
H        -3.75883212820571   -8.27087307611465   -4.43699331058158
C        -1.72433873178644   -6.79160850861949   -5.49706635266378
C        -0.92816822913179   -6.64645147219150   -3.14431993409153
H        -0.33085987060807   -5.79724942768641   -3.47476883127451
C        -2.15376575028053   -6.12224805858407   -2.39740105341709
H        -2.75095609683454   -5.49100798792311   -3.05319179396421
H        -1.84293825192233   -5.53183468155792   -1.53992224572631
H        -2.77154488742485   -6.94625417529021   -2.04267162423322
C        -0.07788780904998   -7.55761815914913   -2.26582900808630
H         0.77629735673419   -7.93588070265220   -2.82205161168052
H        -0.66493041209139   -8.40388202524276   -1.91386544705481
H         0.28520817344486   -7.00775238780332   -1.40245338604543
C         0.47401500794370   -5.94131953162089   -5.98394983505580
H         0.76194674625422   -6.72886259341842   -5.27462382366530
C         1.11658233496004   -6.24145178540613   -7.34017863977291
H         0.82008074462624   -7.22663083155266   -7.69454370305949
H         2.19946791035213   -6.20964011600567   -7.25588337924186
H         0.79678547857905   -5.49555686042518   -8.06394392593512
C         0.95847516773990   -4.58224570499290   -5.48201465712625
H         0.38754368022030   -4.24579841865994   -4.61818764540132
H         0.85179451371594   -3.83866830901241   -6.26766752144484
H         2.00805696671170   -4.64286048829306   -5.20303139368698
H        -1.92321305220516   -8.17762847410982   -4.06765819880603

