58
CSD_code = DAZRIG | q = 0 | S = 0 | Stoichiometry = C17H34Cl2N4Zn | MND = 4
Zn        2.03238390335330    3.41800746652362    4.14815064088784
Cl        4.05512559374291    3.56417374972988    5.13448607622335
Cl        0.87057139025769    5.20337696961155    3.51512662588386
N         2.97143816824704    0.60815749051539    4.74917177251727
N         0.82991087838302    2.83291774947418    5.85526527587424
N         4.08207172881254    0.33162782026239    2.71988986264914
N         2.25206730761222    1.80481484454242    2.94977798395497
C         3.11474239305338    0.96572141508335    3.45243759189259
C         4.02094999275093    0.08942505755689    5.61247931815663
H         4.56303888023843    0.93109000164266    6.05624921425772
H         4.74121202429816   -0.51649989458833    5.05973809923286
C         3.29089227438486   -0.75689321805012    6.66811693644127
H         3.74161938672899   -1.74134356569985    6.77952977139221
H         3.31344469876955   -0.26392546791608    7.63854981442815
C         1.85564595568160   -0.83878844566848    6.14589889157951
H         1.12603874046123   -0.99311105713956    6.93738404814111
H         1.76074824252834   -1.65257090872388    5.42532308216490
C         1.68997230353956    0.50501869466494    5.42335853715690
H         0.90226103694461    0.47983245191647    4.66802309186592
C         1.41897374022220    1.62587949145673    6.43929239686259
H         0.77761166917479    1.22249038182463    7.23033550082865
H         2.37249780173616    1.91873246116775    6.88118746566561
C         0.92847306276980    3.97080981155477    6.78667777458924
H         0.63066749600498    4.86567781033590    6.23413736481479
H         1.97438866507873    4.08824200463615    7.07866824613585
C         0.03938870994171    3.83757587486186    8.02080996288780
H         0.16092024553451    4.73200472028046    8.63323063309122
H         0.34440016966596    2.98089928129000    8.62553747548896
C        -1.41641109583566    3.68529176425186    7.59237630655502
H        -2.06027502479469    3.54363612145278    8.46267104667612
H        -1.73572005902793    4.59463779409516    7.07933821972014
C        -1.54152985561576    2.50201335498223    6.63842898093669
H        -1.34128375255730    1.57066969059637    7.17324240965108
H        -2.55711353736360    2.43914568062047    6.24458000587269
C        -0.57743620350287    2.66891492251058    5.46348148212084
H        -0.66172331056545    1.81763070361345    4.78559108215942
H        -0.85179292806150    3.56594277501732    4.90307262797794
C         5.10103099805017    1.04739706291048    1.95339994787432
H         4.62402340599115    1.90762248953526    1.48475339195633
C         6.21125600395981    1.54531267244079    2.87766197596175
H         5.79569984333542    2.19035610278458    3.64987346737052
H         6.94187940576175    2.11428186179833    2.30943461863236
H         6.72097920652452    0.70889239771021    3.35411503541105
C         5.63968335874205    0.11246907814111    0.87604902453569
H         4.83237430682609   -0.24443307992932    0.24129974210831
H         6.13101062584690   -0.74695139022858    1.32842169208440
H         6.36279854420093    0.63611287489123    0.25760583140217
C         1.98320032161547    1.84978849666972    1.51897247539055
H         2.54052200867733    1.04501671865634    1.02084343933156
C         0.48479752517230    1.59843700378494    1.33453729732303
H         0.20874240661036    0.62217270894109    1.72821122253183
H         0.22653528167989    1.63721432946432    0.27975847617351
H        -0.07726497510105    2.36443552016246    1.86359476782725
C         2.35089375434307    3.19950832418932    0.90497944654158
H         3.36103594082805    3.50230247776046    1.17558232142478
H         1.66389182712752    3.96479146043284    1.25701038279611
H         2.28254840096478    3.14457411445690   -0.17917200990340
H         4.49439111621166   -0.45992702291496    3.19715183650425

