73
CSD_code = DAZSUS | q = 1 | S = 0 | Stoichiometry = C27H37FeN3O3PSi(1+) | MND = 8
Fe       10.73535672257056    8.22567461706208   10.32695856567198
P         9.64925573389847    4.57787824030693    7.95665525045466
Si        8.91350341749235    7.00416476023580    9.94938589488837
N        10.95904970513498    3.68357961285811    8.43163295456091
N         9.96343053975751    5.34628719217691    6.52896495131358
N         8.27794063183679    3.65748794939902    7.91284709250799
O         8.92960299614627   10.34495547046783   11.09396744365622
O        10.43067913515388    9.43308227035248    7.72317785039251
O         9.49230052795356    5.64146994095555    9.03126163122014
C         9.64715181623252    9.49385551153599   10.83268187714034
C        10.56713583581599    8.91957273127472    8.73819802334992
C         8.24141586369042    6.16894632768351   11.51134231431540
C         7.83720305078230    4.83794692920470   11.55959013033201
H         7.90327216060834    4.23365521447629   10.66532869864367
C         7.35511642685225    4.27911833951845   12.72825220217592
H         7.04933134833527    3.24262767376937   12.74099123075360
C         7.25373593903887    5.03491891857677   13.89036937156141
C         7.65482662959031    6.36733333554164   13.84736910690716
H         7.58424902268680    6.97064322971259   14.74057971554541
C         8.14170532659550    6.92049420713391   12.68080011163246
H         8.45834932325127    7.95352641274316   12.66165393974700
C         6.70901666236712    4.44342031486445   15.15022723649078
H         5.65023885511936    4.68647736193799   15.24285103259354
H         7.21876296801413    4.84780349351745   16.02145923335445
H         6.80739937534444    3.36091801527408   15.15065608218796
C         7.47534346696082    7.72757746033340    8.94309597382156
C         6.41983600649839    8.36155119854712    9.59833830125062
H         6.39677696113091    8.36356175332088   10.67760150585424
C         5.40772030740500    8.97721499337676    8.88985875684256
H         4.60038837949823    9.46038058989973    9.41989765237095
C         5.41413626773677    8.98963743590746    7.49842378565556
C         6.46458629936205    8.36089233000393    6.83915729755089
H         6.48978796521437    8.36150383544272    5.75884292427665
C         7.47775834969570    7.74713183836357    7.54922711481526
H         8.28688953577763    7.26531839285443    7.01933215387461
C         4.33043219711616    9.68247767629635    6.73769836845313
H         3.36969159712180    9.55817340173633    7.23151417293555
H         4.26031781301238    9.30490221034179    5.72088357844247
H         4.54218751012005   10.75071208268165    6.68800878076358
C        10.96425674792927    3.12614503926058    9.77237106622516
H        10.67246297086646    2.07218328226845    9.77500764387979
H        10.26865554259441    3.68916255628647   10.39008136336226
H        11.96729431798319    3.20827544604442   10.19485772237135
C        11.84067619205664    3.00946165139376    7.49840165248445
H        12.87820434216001    3.16987842432865    7.80066624264578
H        11.70148702517204    3.41173579583943    6.49839647214230
H        11.66167062398542    1.93014611806045    7.47193878577453
C        11.02454621884400    6.33632591943913    6.50032541308053
H        11.93922833335222    5.93621930574193    6.05417501728918
H        11.23026459846957    6.66222782773326    7.51919256674172
H        10.70303356582681    7.20006879417077    5.91563509833907
C         9.55042128124515    4.85149804652274    5.23138394469087
H         9.14477962288044    5.67715428612543    4.64252386052666
H         8.77726599584537    4.09787139200121    5.35225239503363
H        10.38612563974236    4.41574014415649    4.67527350631764
C         6.97237461679617    4.29005642535307    7.84019669410391
H         6.59445113371808    4.32515342766547    6.81479090549121
H         7.03639765025317    5.30370860545088    8.22824777648577
H         6.26790137034316    3.72124046079672    8.44930765332367
C         8.29201463524818    2.27704982266942    7.46307058710773
H         7.68115408204478    1.67439634224124    8.13876238599157
H         9.30761300765889    1.89068529939796    7.47101683804525
H         7.88382307573643    2.17182259516549    6.45356485190750
C        11.59445605299113    6.55752477276105   11.50011867437063
H        11.12481263511869    5.65201186017050   11.84352903826319
C        11.70576680062364    7.75641117947835   12.23555821665912
H        11.34886481412603    7.91027868297595   13.24009077655284
C        12.54256437211296    8.64563018296384   11.51031582555374
H        12.90958963221494    9.59427417252008   11.86373628441527
C        12.92293951621004    8.00328851236182   10.31546786983892
H        13.62299923097895    8.38299871035348    9.58976452049060
C        12.31379438586169    6.72256169051979   10.29005957744276
H        12.51572729809951    5.94443995810101    9.57223646473040

