63
CSD_code = DAZTOO | q = 1 | S = 0 | Stoichiometry = C33H23N3O3Re(1+) | MND = 6
Re       -1.02453762687932   -0.00996361714347   15.44807082356766
C        -2.25311541717025   -0.62816426860113   14.06043952983461
O        -2.93955510264455   -1.01801819000388   13.23699643798778
C        -2.37567013297914   -0.05551106349840   16.86022122891013
O        -3.10884586367938   -0.06924089552502   17.73519435534290
C        -1.49361090448304    1.87198488507909   15.20272837846414
O        -1.71321083540304    2.98735035221610   15.09752433405903
N         0.73364417984125   -0.06869247482671   14.15946577819821
N        -0.15144988444037   -1.98879447529319   15.75443883267904
N         0.49828229284848    0.58710767642698   16.97052279985840
C         3.00979834702934   -0.80702565703321   14.26380318248998
H         3.74233230490215   -1.47126305012925   14.68893488566878
C         3.40193403261448    0.16700006831238   13.38932176068857
H         4.44165027300178    0.28861873063889   13.12597788737056
C         2.43386417728375    1.00162402033500   12.80040645911622
C         2.75760145630025    1.97408822028420   11.83378201376675
H         3.79193657220696    2.09089924801774   11.54796398089674
C         1.77737009177895    2.73654508546966   11.26229888790750
H         2.02603511606934    3.47825064402582   10.51979477117799
C         0.43492105211115    2.54381483491031   11.62676543197580
H        -0.33363875841096    3.12791076935517   11.14543712397507
C         0.08983065397493    1.62237591298671   12.57725525349163
H        -0.94857674224714    1.46101641685141   12.83214808348484
C         1.07849407877486    0.83707185312208   13.20851294853675
C         1.65135285614838   -0.91545817132386   14.62322945214242
C         1.15181750346402   -2.00507054092230   15.47973547685672
C        -0.71653005706117   -3.05263115935338   16.38234564639958
C        -2.11655989677565   -3.12958012499938   16.54590213691136
H        -2.73748404353464   -2.34920090055964   16.12826243633205
C        -2.68655752689982   -4.19441688599987   17.18839542258477
H        -3.75891014318077   -4.24115658172675   17.29521504330965
C        -1.89596579195293   -5.23253695942223   17.70703216070968
H        -2.36724097636397   -6.05523556720311   18.22111841114601
C        -0.53926868976316   -5.20430106832176   17.54321395093849
H         0.08334652457788   -6.00455744148187   17.91352822679736
C         0.07721497766736   -4.13191569219785   16.86863207032333
C         1.46413892883303   -4.08447421125418   16.63595022440975
H         2.09370166008563   -4.88009501057179   17.00439380491304
C         1.99167905849174   -3.04818659534474   15.91879764738534
H         3.04481226616581   -3.03178367294317   15.69768827735315
C         0.64399271605383   -0.09363292171049   18.10921442573989
H        -0.06738531688397   -0.88868717595550   18.29859724215554
C         1.63538208426569    0.17599716917097   19.02983440901004
H         1.69950286431064   -0.41629875334306   19.92897204307269
C         2.53862708111188    1.20937563873021   18.79255665425238
C         2.36981582450645    1.92572640325973   17.60893322912944
H         3.02368927844175    2.74865518306235   17.36785124184344
C         1.35270497892693    1.58806339031019   16.74199045835639
H         1.21424994103387    2.14949981369542   15.82574484887997
C         3.58348460741733    1.58965786822427   19.78845825738319
H         4.49575282944596    1.90344067821711   19.27975234695365
H         3.80872420442375    0.74743729812161   20.44370844452660
C         3.03503650712933    2.74415822794190   20.60461018445489
C         2.15962608396326    2.49990342258232   21.65390640830998
H         1.89003901301714    1.48394683812183   21.90511492402413
C         1.64095862449936    3.54975474038724   22.39055051842972
H         0.96751234923105    3.34846026238845   23.20968870963558
C         1.98729683947093    4.85375336631332   22.07930995427173
H         1.58427826528070    5.67256703769070   22.65480604558431
C         2.85578195222924    5.10323965862708   21.03079858943504
H         3.13392387839415    6.11722418191973   20.78682932106164
C         3.37426894170520    4.05283817163047   20.29338756867198
H         4.05960644171045    4.25523505827531   19.48243861689808

