53
CSD_code = DAZZOW | q = 0 | S = 0 | Stoichiometry = C22H24Cl2N4Pd | MND = 4
Pd        0.43638055200879    2.00196151634804    3.87140883944201
Cl        2.38805366949078    1.89023517529800    5.02888731993887
Cl        0.62006380671359   -0.12534517066381    3.07321125990087
N        -2.42059187113770    1.63287946014452    3.01173094681504
N        -1.12745406768011    2.07252814183272    1.35540600081828
N        -0.09900538269305    4.02109612948890    5.97342617002354
N         0.70600249364718    4.98051335913352    4.22936619082269
C        -4.12597465274134    2.49655660198387    6.21336209046643
H        -4.39871892072281    1.50951548708825    6.55773767319016
C        -4.53483128070873    3.61244650591703    6.92133148368456
H        -5.13238349349115    3.49308351338338    7.81270204390564
C        -4.17596125485807    4.87902913789580    6.48983089319797
H        -4.48962465199638    5.75028235053117    7.04471452287062
C        -3.41681650657383    5.02199207354410    5.34170873924271
H        -3.13640021694630    6.00660981354614    4.99769563984837
C        -3.00912063511051    3.90568397185827    4.63124019248522
H        -2.41156874552137    4.02908113521283    3.73914469980530
C        -3.35271221914242    2.63233169135783    5.06558419440787
C        -2.85983851640994    1.39074357385499    4.35863975004538
H        -1.98998319451297    0.98387936292238    4.90906052749264
H        -3.64331858796222    0.62789650242594    4.34777718065578
C        -1.16370543278188    1.99037730999490    2.69632880231440
C        -3.17538006577143    1.50157284940380    1.87544784991347
H        -4.20824006380831    1.22151880893303    1.90009141887275
C        -2.35830569870532    1.77394788043188    0.83162215306398
H        -2.54944886269774    1.76902458320617   -0.22171410782409
C         0.06770557515028    2.32740417122733    0.59640673797133
H         0.93354229223366    2.13734854254205    1.25163726599574
H         0.09076129441064    3.35850948042967    0.23285058639996
H         0.11838497102598    1.64577579327120   -0.25225871523581
C         1.57103556283888    2.96939183653820    8.29064184879719
H         2.11136538902586    2.67901060996625    7.39986950554327
C         2.23162271366467    3.14630598532801    9.49282881317590
H         3.29989014727547    2.99907220335306    9.54265347399498
C         1.52664959987312    3.50552786354259   10.63024438856537
H         2.04422383431054    3.64091513475685   11.56863433631290
C         0.15588897173772    3.68738422362334   10.56490702411194
H        -0.39728457581042    3.96466868856991   11.45055198157809
C        -0.50857599419966    3.51544174076847    9.36260475201144
H        -1.57984696667912    3.65820713075855    9.31027359613241
C         0.19507759091712    3.15352558320469    8.22241357106117
C        -0.51103406378429    2.98899767871238    6.90236826514918
H        -0.23301776213212    2.02162596813568    6.43895415150252
H        -1.59641468873450    3.03317007684534    7.04414674589642
C         0.29155764860425    3.79544460899760    4.70844949201244
C         0.05573008648141    5.34478490792428    6.28590576363593
H        -0.19091289162291    5.73863904047315    7.24994442890452
C         0.56333321655171    5.95114884141723    5.18761870010913
H         0.83848687636001    6.97173020643016    5.01776461606318
C         1.29425043401452    5.15490591438385    2.92969198777600
H         2.11613183644427    5.86768553374300    2.98558043908073
H         0.55528281694250    5.51606873318753    2.20889065254451
H         1.68464988521686    4.18126773676193    2.60288311550233

