22
CSD_code = DCPVCL | q = 0 | S = 0 | Stoichiometry = C10H10ClV | MND = 11
V         2.28349793835931    3.52686232106093    0.09559596438825
Cl        2.28350037708394    3.45555555345581    2.18576230310473
C         1.58384976888809    2.19428005591848   -1.64670347665348
C         1.13950895010877    1.68840429971351   -0.40937784950268
C         2.28350031589797    1.34267706852604    0.33950777648287
C         2.28349989442018    4.95070777216224   -1.63732061384878
C         1.14291238479927    5.20068059058968   -0.85272961879077
C         1.58246679019566    5.68706650212000    0.39571977021480
H         0.94860337894838    2.45503665605091   -2.48100038592138
H         0.11438146149317    1.46791049978126   -0.14222846134965
H         2.28350054729663    0.80881473472966    1.28013459839196
H         2.28349977049112    4.72304524787514   -2.69271124887385
H         0.11683272209356    5.18059498835099   -1.19527413095496
H         0.94959761575110    6.04279495960867    1.19725803333683
C         2.98314997235351    2.19428137040064   -1.64670318111321
C         3.42749131987250    1.68840659067303   -0.40937734683125
C         3.42408764878097    5.20067832789030   -0.85272932695296
C         2.98453374291741    5.68706520626910    0.39571994561924
H         3.61839606986449    2.45503901879974   -2.48099987205729
H         4.45261893091764    1.46791455260142   -0.14222761825568
H         4.45016721915410    5.18059093389200   -1.19527357067638
H         3.61740318031221    6.04279274953047    1.19725831024363

