68
CSD_code = DEBHOJ | q = 0 | S = 0 | Stoichiometry = C32H27MnN6O2 | MND = 6
Mn        1.72112765269577    2.28018665908606    2.42990829077099
O         0.25554622538353    3.24348110638531    1.67745355831872
N         5.20379745959690    1.12105328860290    4.31864385483160
C         0.00390077673537    4.49089915753014    1.48788551719154
O         2.70534307129774    2.01521548314877    0.89297423917511
N         3.07341650957353    1.45371834854184    3.60635382151108
C        -1.25888662330126    4.87333528579413    0.97265895317216
H        -1.96048870327041    4.08900928478249    0.72365431161496
N         2.77278642450386    4.10336841933103    2.53854485742946
C        -1.58688782982831    6.19173263123182    0.78119829578052
H        -2.56021014061069    6.45008189874603    0.38855454960514
N         0.69463166003025    2.59545035125012    4.28661367894873
C        -0.67580082596412    7.20133633228349    1.08882335301373
H        -0.94281650798397    8.23626223224218    0.93931522300371
N        -1.07236744331135    2.46711266853378    5.61930247701629
H        -2.01281090589552    2.27335625078782    5.92188361176706
C         0.56734987941890    6.86369729935034    1.56805803112810
H         1.28592457491350    7.64001177328610    1.79506265840515
N         0.68205786200343    0.63042351896301    2.09343290079255
C         0.93602206863433    5.52797921671457    1.77612881921312
C         2.27055487169478    5.23605559783043    2.19974655759565
H         2.92562800385664    6.11645016075041    2.20613337866027
C         4.19218137916614    4.15193299133540    2.85268272421331
H         4.31215558097967    4.41888556957386    3.91099615365754
H         4.67791710746258    4.93873967099890    2.25944913686919
C         4.91357042674217    2.82958500543336    2.59723406518455
H         5.98021676008710    2.95170111494774    2.78924020459469
H         4.77023983612893    2.53739923133544    1.55617187480681
C         4.40464961212996    1.76853796714871    3.50981298643433
C         4.37926505094913    0.30717873738361    5.04928370366526
C         4.68695722411277   -0.57722180668732    6.07288366302222
H         5.71236746258785   -0.72534183021037    6.37350540391200
C         3.64566462994222   -1.23932082590551    6.68907065345153
H         3.84871348102690   -1.93340243298778    7.49211546371425
C         2.32603739131059   -1.01614881548544    6.30032293003991
H         1.53072792081445   -1.53575778119941    6.81746110197923
C         2.00764402032834   -0.14596611657477    5.27629320523995
H         0.97565244367050    0.02446328111823    5.01621032207555
C         3.03869490316141    0.51624002924084    4.62164928836504
C         2.86790032075742    0.98263130020024    0.13805854484393
C         3.85931976293832    1.00562117604808   -0.87167101696651
H         4.44731429709638    1.90584263486103   -0.98003153296699
C         4.07322550221648   -0.07775404015090   -1.68449306529944
H         4.84196258982342   -0.03724516915406   -2.44248916508699
C         3.30451503645290   -1.23548920069074   -1.54126373437383
H         3.48328945349436   -2.08321127380561   -2.18515740261159
C         2.31997965322829   -1.28459024021440   -0.58662612231703
H         1.71386701681581   -2.17392330683723   -0.47845547675990
C         2.07667347486497   -0.19713353426659    0.26820678845016
C         0.99822805987470   -0.25131528641693    1.19299173423246
H         0.36161704580463   -1.13514975457417    1.08471840196258
C        -0.56377197183443    0.30959794317396    2.78117454752925
H        -1.23951627308751   -0.21232167717786    2.09041373386972
H        -0.34758015151034   -0.37749426354145    3.60828428008351
C        -1.32713800220403    1.52785325009233    3.32129881003983
H        -1.49429199010061    2.21816929658653    2.49173143180946
H        -2.29147460295815    1.19741388735950    3.71363584070016
C        -0.56034536463457    2.22005453757856    4.38600132819256
C        -0.07282059403986    3.02643755481184    6.37858963806356
C        -0.02899355122946    3.44728687348952    7.69793986080347
H        -0.89808820532409    3.39195225183852    8.33529075182327
C         1.18027204160074    3.92466620379133    8.16043503944673
H         1.26213774072277    4.25827729897147    9.18352890811460
C         2.30659092758361    3.96827382899204    7.33678288121923
H         3.23820090084269    4.32624995634458    7.74752455967684
C         2.26260930633672    3.55675351705158    6.02147937141910
H         3.13994897228357    3.56099676025857    5.39862188148514
C         1.04959531340325    3.09132852073724    5.52676536245334

