34
CSD_code = DEBHID | q = 0 | S = 0 | Stoichiometry = C12H14HgI2N4S | MND = 4
Hg        9.06184457334698   10.46015396273758    7.79245597643738
I        11.44861179601611   11.47112591264409    7.58790760306165
I         7.25904204311604    8.56266163780835    7.52468680801658
S         5.99189105226684    9.66850457013431   11.38578884881270
N         7.44226178667152   11.29687554967555   10.47699163805962
N         6.07982977587214   13.07522062901785    9.73631901456943
N         7.55951778540751   12.29628252037059    8.28426031369869
C         7.06913370111647   12.17415698367081    9.51902761619025
N         8.51758405586406   10.62238172010973   10.25804201950554
C         8.68092640135817    9.55794798678102   11.08296278494015
C        10.09014310489508    7.80233134709175   11.92881041306045
H        11.06494307789765    7.35570263290196   12.04717376026301
C         9.94820899766745    8.96925961898764   11.22373282493244
H        10.79688984094981    9.47014916769896   10.78062267301516
C         6.87014284275184   13.30040592564581    7.70681359039507
H         7.07191347736380   13.60775844751112    6.69987383178189
C         5.94806470565555   13.79419370147717    8.59493308747210
H         5.23440998708023   14.58564795721872    8.49309163786417
C         7.54672373354261    8.93553499691916   11.65841358226660
C         7.71601474652903    7.73880738430380   12.34940361942953
H         6.86372867411747    7.24743011502516   12.79104735706747
C         5.28242400963775   13.18988965818801   10.93076448821700
H         5.20817509108590   14.24739980526233   11.19985442805885
H         5.80334324769481   12.64585501038536   11.72048968352903
C         8.96966283092470    7.18655393642416   12.48998900303019
H         9.08432681377313    6.26496059072862   13.03983012426936
C         4.90568039525440    8.19541568879060   11.32952924029257
H         5.36820489499029    7.42921614405465   10.71704794057053
H         3.98103857832886    8.52703015231830   10.86872577561225
H         4.70347616515400    7.83794890215385   12.33394294244554
C         3.89386877528248   12.59664108028120   10.71504048547611
H         3.36402560858432   13.12649256241551    9.92697890636464
H         3.31913232089879   12.66986543690148   11.63332481367386
H         3.97791510889561   11.54909826437357   10.43822316763148

