48
CSD_code = DEBJEZ | q = 0 | S = 0 | Stoichiometry = C26H15AuF5P | MND = 2
Au        2.62538898446180    1.50202353953588    3.32884448545648
P         3.21375363633897    2.70702641101788    5.14659936263929
F         1.74168465566539   -2.94155085692893    0.72882282013564
F         1.04700983149642   -4.34049158771853   -1.48963076865313
F         0.39779880216160   -3.02566061114116   -3.79108647917320
F         0.44983742501852   -0.29790219257981   -3.85905092200072
F         1.14338274057505    1.10661522560310   -1.64364728321732
C         2.12525721109012    0.47801356383956    1.74469264072348
C         1.81861848045987   -0.14946992323204    0.75484943990687
C         1.46014989493473   -0.87925812630217   -0.39669367893018
C         1.42568667290636   -2.27897502089749   -0.39237009383478
C         1.07202559628879   -3.00165168196347   -1.52190136570740
C         0.74059077367813   -2.33398766283483   -2.69743053347755
C         0.76784194245967   -0.94266728957800   -2.72884360268598
C         1.12326458367777   -0.23254566601626   -1.59203883005771
C         5.52947009011295    4.09414793224557    5.97715633140493
C         6.89983798502273    4.21305918511251    6.12102707901352
C         7.74050815193993    3.21444722981605    5.65500758937311
C         7.21321033057469    2.09188908576970    5.03691558308886
C         5.84455531308070    1.96800569377330    4.88563204777630
C         4.99817470657957    2.96520677784297    5.36190384665136
C         2.12455390856618    5.01235532359916    6.37577554996137
C         1.63436572646496    6.30509638799538    6.32971125477915
C         1.55635712914597    6.98010228352949    5.12200277867879
C         1.96570786342724    6.36235094576811    3.95083996246399
C         2.45298448436666    5.06949086486843    3.98862411566794
C         2.53958402890101    4.39212864300310    5.20173659314279
C         3.56071647255421    1.69246725237192    7.77065272471178
C         3.06731321367002    1.11938518004690    8.93024991418057
C         1.71489701471118    0.84967772508033    9.05627848996504
C         0.84510316991855    1.14597868494892    8.01739849037071
C         1.33038731254576    1.71326713931163    6.85577790548544
C         2.68876471237626    2.00128923380091    6.73393100331458
H         4.87267677140321    4.87359205626847    6.33823019105435
H         7.31391328474653    5.08900588614633    6.59834665645069
H         8.80942713212870    3.31412286212586    5.77002867774140
H         7.86831070181577    1.31642927060444    4.66905245352832
H         5.41974070269493    1.10035857330674    4.39587830104158
H         2.18265167038662    4.48390674042553    7.31776908950313
H         1.31170806022179    6.78753804152512    7.24068380816793
H         1.17104297006499    7.98830780237476    5.09333885418402
H         1.89903185053560    6.88596652564547    3.00901959851067
H         2.76532029732312    4.57087957019642    3.07926697953843
H         4.61723562396624    1.89975981863056    7.67197011090486
H         3.74365346086724    0.88133835052232    9.73784816117053
H         1.33723165582038    0.40233809762446    9.96343239464761
H        -0.20814598302635    0.92852708138275    8.11315604941024
H         0.66501895587112    1.94206563353983    6.03214222298207

