41
CSD_code = DEBLIG | q = 0 | S = 0 | Stoichiometry = C14H22N4Pd | MND = 4
Pd        4.55199776124074    2.43764817685223    2.30713830300802
N         4.20747495411278    4.21707337526928    3.59639408785576
N         1.93573174865944    0.31926196536898    0.94129015872662
C         3.11370509763530    5.27890394342701    5.59677098211886
H         3.98673419840829    5.90107902547515    5.78515689737176
H         2.67548326102061    5.00664456558282    6.55311768994277
H         2.37741419973001    5.85653771366223    5.04187496865258
C         4.44096077783669    3.14598066615571    5.71133285540950
H         4.83763118226700    2.32355017691094    5.10709671783936
H         3.91089304732499    2.74017668533071    6.56870656180980
H         5.28058337881146    3.73972666373931    6.06645845185067
C         2.25569750726487    3.19694949654187    4.46112365168988
H         1.53114975299967    3.83898202088203    3.96263771019226
H         1.79530426831595    2.76273376100202    5.34432655896257
H         2.53249113468288    2.38590134996243    3.76490371632725
C         3.50942501585070    4.00560769254874    4.84700276694289
C         4.23645540807361    5.31916184875195    2.96016229422487
H         3.82500603133398    6.25803618609478    3.33053491028348
C         4.40200927941791    0.50107624714644    1.61020540861748
H         5.15666314888446    0.20510719377528    0.87817128537241
C         3.04796039253712    0.39711293481055    1.23095073581235
N         4.89460317727215    4.21734098175247    1.01822858582855
N         7.16692803987278    0.32191958498498    3.67315204058193
C         5.98872866128791    5.27902190058720   -0.98192912130793
H         5.11578500952073    5.90134586078022   -1.17021527614962
H         6.42685213597841    5.00671507368488   -1.93830337676068
H         6.72514400983103    5.85648430224289   -0.42701720662472
C         4.66118669417543    3.14616029014854   -1.09654920053848
H         4.26425783877684    2.32390146259750   -0.49222000379290
H         5.19132147298723    2.74009702615631   -1.95375021103086
H         3.82175066351095    3.74002564044826   -1.45190352509289
C         6.84628354484407    3.19690345056686    0.15385942557720
H         7.57090941728305    3.83882958227636    0.65236516371758
H         7.30673169068503    2.76255380067950   -0.72926775486179
H         6.56901753441600    2.38612331401124    0.85020433467010
C         5.59277481287956    4.00575855187673   -0.23226326950618
C         4.86628824752189    5.31921166916174    1.65484356456560
H         5.27834717358058    6.25795001252099    1.28482523225092
C         4.70043437777104    0.50116896446347    3.00417230269801
H         3.94591712898662    0.20490767252290    3.73623338201313
C         6.05456682240304    0.39892916924925    3.38357820074902

