71
CSD_code = DEBMAA | q = 0 | S = 0 | Stoichiometry = C26H32CdI2N8S2 | MND = 4
Cd        4.35033694784360    4.23451719550292   18.15408479310092
I         3.50394720897252    4.18752444327044   20.73396963862884
I         5.70205676391389    2.38137732728159   16.70148756315947
C         7.17865715758093    5.75253346493661   19.59241733501045
H         7.14579307954214    5.13782447765368   20.47197765657459
C         8.08945779209620    6.72240703342797   19.24381740217487
H         8.96637237478528    7.07440292914395   19.74769126863261
C         6.56551405961172    6.54023080743252   17.69801995825420
C         8.32327416245094    8.28043660449872   17.30658874175459
H         8.01010919208416    8.18942511807827   16.26513512809499
H         9.40770841072386    8.15815982904165   17.37536143227849
C         7.90384448435484    9.63861287916032   17.86024211935928
H         6.82649842212991    9.75267412122521   17.77257372655188
H         8.38846884248254   10.43136016137518   17.29830161329846
H         8.18531382216915    9.73003892385654   18.90695749643836
N         5.92516162201966    6.78258711348994   16.53508290920072
N         4.96316779520170    5.99321330990721   16.22727349501310
C         4.29103310473331    6.34116773291925   15.10060107944026
C         3.44478319137550    5.39128607028351   14.51091090354023
H         3.43721645345391    4.39507446253523   14.92643386335388
C         2.69250871146524    5.71882525618514   13.41064179389661
H         2.05663913799218    4.98126484354255   12.94527200907783
C         2.77138922777958    7.00480491209110   12.88160262013813
H         2.19307356172386    7.26385887377011   12.00672483440652
C         3.60093389943547    7.95327644316868   13.44365157961102
H         3.65640307623479    8.92998050754576   12.99062669324522
C         4.37968033604695    7.64684418961521   14.55572889347442
C         4.91962152488485   10.39567594372728   14.62295259808694
H         5.16036519487297   10.40584840546142   13.56085161891793
H         3.84470641881677   10.48880285886434   14.76891729537796
C         5.66229858649536   11.50273069296222   15.34350477262718
H         5.43687676261684   11.48110342126933   16.40684235827500
H         5.36985474132296   12.47171731995291   14.94398628444451
H         6.73514533179872   11.38337890223550   15.21403596930389
C         1.55875831970513    2.58652313803176   16.79237835485702
H         2.02026427210005    1.61863641404423   16.84472376090976
C         0.29266724432926    2.92385886553610   16.37418073605201
H        -0.51594972354523    2.31490289062105   16.02478228248239
C         1.38339585220311    4.71336062533439   16.96838649050153
C        -0.94717996562154    5.07698256062015   16.12695160626156
H        -0.86332906868225    6.02412190303585   16.66254727290721
H        -1.85635087771698    4.55724526137763   16.44154236276790
C        -0.97062030802784    5.32896896234970   14.62259528685602
H        -0.06832947897831    5.85733306749493   14.32577026034717
H        -1.83406831559370    5.93436686140303   14.36372153914883
H        -1.02631507802522    4.38971877868375   14.07680639839798
N         1.60442009723913    6.02113281470242   17.21720523725275
N         2.70058333022385    6.32210341533858   17.80976567966223
C         2.91501538695972    7.65530118122776   17.94737495879198
C         3.90485123978844    8.08069264992771   18.84473690609469
H         4.38920300608878    7.33258722053807   19.45371107523946
C         4.20242690778784    9.41470782696354   18.96976266295151
H         4.94982810131736    9.74316015878737   19.67573408150030
C         3.51675480902509   10.34777522664483   18.19576608310561
H         3.73566580440202   11.40036367883169   18.30127440854004
C         2.53717549050095    9.95093222420979   17.30882690118091
H         2.00920104388077   10.70369251843304   16.74591048272359
C         2.21001069845292    8.60565111110672   17.16676668919287
C         0.68403422760165    9.46511930144757   14.97911752801172
H         0.22785203944199   10.25735287614575   15.57101598145213
H         1.64256061311097    9.79370347574904   14.58073242812065
C        -0.24814184414129    9.03579383185588   13.86417078221981
H         0.19849308425995    8.23171442847307   13.28457410958542
H        -0.44993671544584    9.87431962326912   13.20067203765422
H        -1.19103106108991    8.68408077029603   14.27567033788321
N         6.24473470494146    5.65012773395333   18.63246280074056
N         7.69677561370900    7.21538747429781   18.04399127386612
N         2.22087534492092    3.69745607977930   17.15522989089417
N         0.18775059056738    4.27013538140897   16.48957121741925
S         5.46654377272633    8.76896145719004   15.32834888748701
S         0.98009944260022    8.00636163544180   16.08715376223945

