69
CSD_code = DEBNAB | q = 0 | S = 0 | Stoichiometry = C34H29N3P2Pd | MND = 4
C         5.57239158476232    7.54285216327694    6.07687218116722
C         3.91431063057512    6.25575888004483    4.50027653108070
C         4.85577769080298    3.05324389195964    3.16403243623838
C         3.52227386319391    3.20052428241526    2.78817077471112
H         3.16359791185299    4.16435550299758    2.45364051565194
C         2.66445133032981    2.11951735049172    2.86333396860341
H         1.63291720301104    2.23382947628743    2.56601551228167
C         3.12291939104356    0.89703534597147    3.32906213639958
H         2.44934807508179    0.05505344587962    3.38865163850109
C         4.44028833671489    0.75807789942020    3.73458304459009
H         4.79477932140411   -0.18868336378643    4.11562306530918
C         5.30718311574852    1.83331352875273    3.66150095787443
H         6.32934115468645    1.72491007843343    3.99875292506530
C         5.54792058418144    5.41333437130730    1.63661799295327
C         5.66689417965320    6.80147890295049    1.68922783765807
H         5.93708354550523    7.29623068627622    2.63644917966167
C         5.42725812025583    7.55830988232653    0.55684541426517
H         5.50906970443448    8.63409550623570    0.59888801073246
C         5.07199977145332    6.93333571492818   -0.62792619351483
H         4.87542736483183    7.52457317199003   -1.50982604533569
C         4.96251084376789    5.55270711950983   -0.68482976851392
H         4.68397857867186    5.07063235270396   -1.61043864969236
C         5.20459023499708    4.78898708010599    0.44227775950820
H         5.11103570353619    3.71189825530969    0.40641141409951
C         7.59793568209358    3.79846710841766    2.67616340826549
H         7.39997032339656    2.90659432687134    2.07905512287498
H         8.11526768515994    4.53985348680648    2.04405935628804
C         9.08289095967561    4.58546925475777    4.43399724435926
H         9.50992052175185    5.21046316399600    3.63060073500870
H         9.90230368294280    4.21288272961639    5.05687060656130
C         9.17397043377159    6.85344688501506    6.21473718585233
C         8.74671860309312    7.52476917750663    7.36032962175168
H         7.76382683610726    7.31682025969222    7.76353723659674
C         9.56400517512038    8.45967725533391    7.96385673528183
H         9.22512469786671    8.97505603985907    8.84960991158276
C        10.81081347464410    8.74064738949715    7.42659426013979
H        11.45016703439312    9.47354093484932    7.89573573377756
C        11.23272999858489    8.08820730118693    6.28107613907234
H        12.20043158796544    8.31186616378709    5.85580363875510
C        10.41838219471394    7.14973833546212    5.67005447589435
H        10.76144567746070    6.65757359783574    4.77157263304895
C         7.68270270788754    4.55726996856016    6.89882349308776
C         6.41445137583795    3.99425453007882    7.03487050819682
H         5.60794524938096    4.25131044329307    6.32834765608065
C         6.15547348885488    3.11330335928968    8.07043595302571
H         5.17217516254010    2.67877155243094    8.17176359209251
C         7.15297295608659    2.79684255586451    8.97787239019156
H         6.94799005831299    2.11304987267775    9.78795900076808
C         8.41206400226425    3.36322543092292    8.85372107197995
H         9.18743201787673    3.12163295187407    9.56595703180820
C         8.68010925435671    4.23810003121925    7.81713335856828
H         9.66136522778574    4.68446108141705    7.72092247928252
C         8.91442093956757    2.19058009457424    4.00512964971518
C         9.15733883846762    1.33527709530859    2.93030140720686
H         8.97463313616171    1.65588854665213    1.91537782862531
C         9.66156030519524    0.06531816390935    3.14335962505009
H         9.84341504926555   -0.57825170293205    2.29516392043760
C         9.94596811532288   -0.37676757761689    4.42290404011173
H        10.34091439984446   -1.36812103191427    4.58235661277045
C         9.71894426014886    0.46936770859058    5.49556793260339
H         9.93166614395857    0.14003383150950    6.50187620043196
C         9.20616258940107    1.73481321877666    5.29282894025262
H         9.01035418973885    2.37330035566314    6.14046401290882
N         5.51783025344711    8.40852873318087    6.82914720579265
N         2.79922263110033    6.24683529538813    4.22805862837660
N         8.36361140362714    3.47241356755227    3.85416196773876
P         5.93523575180444    4.50768456693694    3.16266448503653
P         7.99266578556530    5.67649165920812    5.49124808871560
Pd        5.83102189700011    6.06474076133115    4.82601623467526

