51
CSD_code = DEBQOS | q = 1 | S = 0 | Stoichiometry = C18H22CoN8S2(1+) | MND = 6
Co        9.88295634207502    7.19088921424006    1.92818644843431
S         6.26536123295472    4.72367806490201    2.03515137847627
S         8.43450952342228   11.28421777657430    2.50579844756552
N         8.31447731301613    6.40404068187202    2.69103523490108
H         7.86933942114038    6.49102657282084    3.59639799357687
N         8.91996069064303    8.79000796195802    1.50730740217679
H         8.30034014033386    9.04243499759945    0.74720264990202
N         8.24892289373465    5.51239413189014    0.58034378235915
N         9.88837083045477    9.39266157813952    3.49565814665477
N         9.34041314433298    6.23577451917000    0.46779542543008
N        10.35577545418736    8.16818249397816    3.39831085935098
N        11.31646618492629    7.73511164552541    0.77802336498563
N        10.97233929155478    5.83695133628760    2.73821172614820
C         7.72513431748812    5.64173212085733    1.79992706343150
C         9.10953326734970    9.68091147541459    2.45221793766818
C         5.81965140671911    5.11947427485077    3.75516708863834
H         6.59557911422181    4.77716777600116    4.43428469422854
H         4.90293200638959    4.57145345089006    3.94852559937466
H         5.63236042675568    6.18439097292318    3.86126631870027
C         7.44679350203375   11.35132731028991    0.97819216255353
H         7.00128141421041   12.34095608933959    0.96675193689688
H         6.66040802878763   10.60215582270120    1.00349493595007
H         8.08779590917442   11.23336618192366    0.10897930295263
C        10.05937902148737    6.31327411265755   -0.61823932243275
C        11.13477822430169    7.60874531268269    4.28291866807231
C         9.72617495560239    5.58780280667828   -1.87815240941668
H         8.81918823787217    5.01073892803984   -1.71851350582665
H        10.53416862477984    4.91526817268614   -2.16264481537292
H         9.56267568749428    6.28863942787599   -2.69532211954380
C        11.59234060263419    8.29434171924138    5.52602647323459
H        12.67943997960962    8.34991623612394    5.55923509021537
H        11.25148824476298    7.75810365665854    6.41029676826738
H        11.18125062319546    9.30037044016546    5.54077508966473
C        11.19981130892088    7.17621652382508   -0.45458731839197
C        11.49464218106330    6.26382651184093    3.91729069770231
C        12.13302391072062    7.45161005189040   -1.45947375534772
H        12.01803389124004    6.99364119414086   -2.42785598642738
C        12.30726834027309    5.42609034604360    4.68829662458976
H        12.70886675353578    5.78976116640375    5.61954256078664
C        13.18121852225754    8.30822433622121   -1.19539863523058
H        13.90947261179565    8.53565617318285   -1.95787737491320
C        12.57629681488115    4.14768936242666    4.24618941732129
H        13.19818372187468    3.48547936328856    4.82774211040657
C        13.28125985011825    8.87784227008515    0.06910847412634
H        14.08062997795344    9.55647829917816    0.31525423787203
C        12.02883927659920    3.72471796359562    3.03997922762245
H        12.20962428532867    2.73285051420134    2.66099778351881
C        12.32819623190196    8.56135988429331    1.02013715021158
H        12.38118367381829    8.99503064605799    2.00924862060753
C        11.23584382758511    4.60264056827988    2.32351486869620
H        10.79391876248267    4.29567756208794    1.38558147963367

