51
CSD_code = DEBQEI | q = 1 | S = 0 | Stoichiometry = C18H22CoN8S2(1+) | MND = 6
Co        5.67188129758309    2.69397730784301    1.23019149766589
S         2.16186028968804    2.24254910952920    3.81144612981858
S         7.56754006689128   -1.25457663799037    1.26749829808295
N         4.42311825220618    3.45224746066253    3.50388791333184
N         5.51000042956204    3.63536361661766    2.78805068241931
N         7.34098002172222    3.62633832631562    1.08592510176975
N         6.56684622495537    1.18150070292545    1.98700194732506
H         6.85408460465181    0.95043214075998    2.93013390372250
N         5.81146196424153    1.69208463698855   -0.29171438247749
N         4.80514306543713    3.95151104608038    0.07143421818453
N         6.40148892859138    0.52116233932378   -0.20183996693037
N         3.97225129699749    2.00888555190714    1.78117160097869
H         3.34716412635384    1.31601838678163    1.38797164371854
C         6.47731683685565    4.44592886952368    3.11913946430036
C         5.32130999164497    2.18259670351241   -1.39692902507522
C         6.78602286428433    0.28570893271784    1.05316693286627
C         8.27607707284482    3.54690877151837    0.14561519281184
H         8.08576806549032    2.87449481065125   -0.67954940456368
C         3.62442571380661    2.55685446789289    2.92190952507180
C         9.67015659925644    5.12304876939480    1.27381001371698
H        10.57818569231205    5.70141402096205    1.34088005544604
C         4.12627697057596    4.23466952027253   -2.21169415827829
H         4.08614053486198    3.84013947348538   -3.21342380919624
C         7.54083035155818    4.44783617894813    2.14916771914916
C         3.58284491320314    5.46518930468767   -1.90724346548644
H         3.10613989621801    6.05872551879149   -2.67140701751934
C         4.73573064180235    3.48295922255768   -1.20172277118503
C         6.47053119093553    5.26903421409315    4.36301070316757
H         5.54770207990135    5.07596352584989    4.90352769487262
H         6.53212223592958    6.33000057910938    4.12507562371246
H         7.31591758970359    5.01309150808147    4.99985478255279
C         4.27531034884347    5.13656909481479    0.35392222700750
H         4.34015761419378    5.47056829636910    1.38031050904742
C         9.45275069311857    4.27211476338329    0.19579487113265
H        10.18096267870436    4.16901352044129   -0.59109515439829
C         8.70758981947198    5.21171617258570    2.25757321811925
H         8.84032931921828    5.85618506709696    3.11068110309046
C         1.32181609166384    1.00666866706144    2.77198642658960
H         1.09520183625776    1.42614779037198    1.79574168306943
H         0.39613710477381    0.77637311920131    3.28979654771870
H         1.92476854265130    0.10631988890264    2.69355944733563
C         3.65565258595023    5.92637330240163   -0.59749490535971
H         3.23879413704075    6.87874971182154   -0.31587548239363
C         5.36658013553132    1.46716947967076   -2.70492054369365
H         5.87399470523496    0.51641409947470   -2.56470584444569
H         5.90277865611445    2.05439194981772   -3.44894363004162
H         4.36058131516950    1.28135789420983   -3.07798923023789
C         7.95034013272237   -1.26209230248198    3.04714590124524
H         8.63344730274150   -0.45278016846311    3.28952924609362
H         8.43776932811018   -2.21390564183093    3.23275296610633
H         7.03561784242704   -1.20561308463844    3.63058400004681

