47
CSD_code = DEBREI | q = 0 | S = 0 | Stoichiometry = C17H27NSiTi | MND = 7
Ti        1.90889819643235    2.17732528936697    2.61398941010035
Si       -0.64609547985760    3.43412011442985    2.37467093436322
N         0.17372130491634    2.26584345231333    3.37401813374139
C         3.37312014723526    2.43959281236369    4.05444241911803
C         2.26769034594718    0.18979589753915    2.17452709637596
C         1.40201616035751    2.74025734003638    0.38430501089170
C         0.87860286730665    3.71306900835813    1.29517438197385
C         2.00324648139437    4.40633420719635    1.81237744098224
C         3.19079856764748    3.90582620344344    1.26305713850730
C         2.83992261486033    2.87671893178473    0.34804919658667
C         3.59673155518911    2.10028142355854   -0.54563108360021
C         2.95120604491753    1.19874368139264   -1.35583004187880
C         1.55482428678830    1.04543174790747   -1.30641148865004
C         0.78136164998175    1.79756156412010   -0.45540801984030
C        -1.15323511257127    5.08044525376259    3.22826085466221
C        -2.18626043241034    2.79178160350001    1.42709597389482
C        -0.30743178960782    1.73901954779367    4.63701651079528
C         0.31903735967795    0.35951652285364    4.90280967023477
C         0.08904343925886    2.69992225227076    5.77346764049891
C        -1.83393123464867    1.57244229167199    4.63033611120903
H         3.35789999350287    1.76147269474637    4.91826285300229
H         3.34252277441168    3.46756054473510    4.44934874611594
H         4.35632777842248    2.30821815078709    3.57426843036668
H         1.36399771706886   -0.27480562817419    1.75191912351359
H         2.60558569218519   -0.44444743202282    3.00456618167310
H         3.04731507574295    0.13838854593401    1.40003288412285
H         1.94130511864875    5.26091394408109    2.48096788417325
H         4.18118937313504    4.32562983939714    1.38875946666558
H         4.67068713798206    2.22896911417059   -0.60349725378804
H         3.51806149168583    0.59956460721716   -2.05432359010730
H         1.08751638264213    0.32699353753496   -1.96532635595697
H        -0.29701072927807    1.70095348968545   -0.45975875876736
H        -0.35092960555951    5.48043304944273    3.84186075200303
H        -2.02062842208930    4.94347289710754    3.86612994672605
H        -1.41172968897909    5.83271143208221    2.49000077282451
H        -3.09022585771694    2.94087340200038    2.00817508837124
H        -2.10757276640641    1.73161062472916    1.20530395588294
H        -2.31226415054558    3.32214023903925    0.48863634437973
H        -0.07800019016498   -0.06150799103182    5.82480515151942
H         1.40303903098782    0.45146942782295    4.99133068656534
H         0.08321534937139   -0.31390489803249    4.07878172854000
H        -0.17592131263382    2.28064018343507    6.74162491695544
H        -0.42504466423414    3.64974719656763    5.64981656789953
H         1.16500821136081    2.87640561308593    5.74007932315209
H        -2.32112557991211    2.53598101174207    4.51673171208457
H        -2.16763675684698    1.12284995238565    5.56263897139721
H        -2.13084837558777    0.93223730586690    3.80404718071377

