97
CSD_code = DEBTOW | q = 1 | S = 0 | Stoichiometry = C46H43CuN5P2(1+) | MND = 4
Cu       12.37312295820401   13.31913608189636   -4.21550902356048
P        14.14486596635427   14.46093525518348   -3.31379354925026
P        11.86615194054187   13.20695421327551   -6.39457376492342
N        12.85417320266480   11.36887716929556   -3.43062912037161
N        12.92821140128110   10.45687933806555   -1.25356144061764
N        10.80462622076226   12.35946697203206   -0.63340065207109
N         9.98559372338499   13.39505795339632   -0.80428560766707
H         9.37297921926835   13.68155152709428   -0.05534867402529
N        11.04324133439064   13.21519855329691   -2.66918098909481
C        13.75564024837876   10.48871747456926   -3.83749979126279
H        14.02907180507935   10.53243884758939   -4.88408453918781
C        14.30047670924604    9.55707839583440   -2.96800492284731
H        15.03452965518653    8.84097341543928   -3.29534606564704
C        13.84905933730581    9.59897295507158   -1.65310670614322
H        14.22544080683612    8.92653294291306   -0.89452771777551
C        12.46039603259033   11.30323541818435   -2.15341327315885
C        11.44100756588801   12.26623784303015   -1.77858439278258
C        10.12728604413377   13.92098413316621   -2.03727322239929
C         9.33724480844276   15.04704718982874   -2.61880391628760
C         8.37898995118976   14.43438603014002   -3.65272766402639
H         7.80881474868688   15.22139741409420   -4.13886260947951
H         7.68115679416765   13.74977833716255   -3.17568199021787
H         8.93902831440566   13.88317794697259   -4.40592688613639
C         8.54920929330154   15.77841440027804   -1.53094622375752
H         8.03069249320405   16.62647395841090   -1.97006058469088
H         9.21484505269115   16.15499432871371   -0.75660270002561
H         7.80084776999012   15.13076343105497   -1.07915570395304
C        10.30017681092805   16.01680949543363   -3.31233204219114
H         9.74011670018960   16.78773031046122   -3.83427948624610
H        10.91994166981655   15.48148796667754   -4.03148268574556
H        10.95270814456411   16.49264341071665   -2.58397367735900
C        17.83747689911487   11.91400320958116   -2.32584010504849
H        18.69720014378250   11.29556608931059   -2.11828581582828
C        17.39396887867447   12.82269510584554   -1.37894512266041
H        17.91152052388045   12.91525418104208   -0.43603278406011
C        10.99185418543148   16.99639200907529   -8.84239271296217
H        10.76862846101102   17.89654340838382   -9.39436916670397
C        12.69093995010117   16.53051701278605    0.51372750814815
H        12.31113068280400   16.99913417506850    1.40887200936910
C        13.38353240551600   14.55979936696550   -0.66264098051097
H        13.54586852609786   13.48964577406167   -0.68557282726161
C        10.14296423002624   16.57510915880722   -7.83036582441476
H         9.25691932914015   17.14528588056858   -7.59468643621326
C        17.18102431976270   11.80451164638357   -3.54159717279333
H        17.52916895203008   11.10430768330914   -4.28653624255935
C         8.26066302512234   10.52431950432060   -7.30510725945655
H         7.41409848067925    9.88524622639579   -7.50436286128160
C        14.48143007080474   17.31302486050328   -6.17804685775185
H        13.83505799205902   17.72076661924972   -6.94089054133720
C        16.14348780469722   16.24652286556122   -4.21755767143940
H        16.78870351960361   15.82816214288399   -3.45799558543454
C        16.60626046465315   17.24360595091094   -5.05748006976763
H        17.61724308480798   17.60662681272037   -4.94997760155350
C        12.89450411050187   15.15903420034147    0.48220825566432
H        12.67312881199067   14.55444235755594    1.34910368531681
C        16.07692398623144   12.59376776990193   -3.79980689689366
H        15.55817853793306   12.52084957641254   -4.74710143524203
C        12.12418691842827   16.25954556670226   -9.14655168548146
H        12.78327924844367   16.58342093046544   -9.93816773074797
C        15.77993265521434   17.77590332272045   -6.03533670913666
H        16.15048097010360   18.55111730739377   -6.68837600678123
C        14.01393052687554   16.31646186820151   -5.34190198967183
H        13.00297542121398   15.93869443588438   -5.44675727954610
C        15.63295448707758   12.37662032424444   -7.62231426088038
H        16.59741003434621   12.85368127171972   -7.52757903608604
C        13.46601998230955   16.70443050212771   -1.75360112728119
H        13.68483026942116   17.30545443698939   -2.62517307906077
C         8.83830177522194   10.53321538596194   -6.04546520550892
H         8.44212121256890    9.90228222250050   -5.26370714381131
C        15.51676391091589   11.15974924104151   -8.27776615303738
H        16.39206201344647   10.68814760898094   -8.69758631339681
C        12.98127472490079   17.29962189177525   -0.60133358798699
H        12.82808503904891   18.36818091722138   -0.57556688756552
C         8.76509365952212   11.33559245794162   -8.31018387549721
H         8.31197650162955   11.32559427688442   -9.28994102181561
C        10.43153557328563   15.42391810121408   -7.12411734529084
H         9.77237091308503   15.08541460042290   -6.33573606352440
C        12.41826733545726   15.10329331621704   -8.44406559954086
H        13.30159206713192   14.53339714970128   -8.69225377188398
C        13.14979705293990   11.14882307652384   -7.85918590617908
H        12.18662003647629   10.66673171265821   -7.94731589175510
C         9.84908131751022   12.15786236913396   -8.06337637563546
H        10.24530228240153   12.79224281373533   -8.84418340706701
C         9.92161023992124   11.35457361346963   -5.79119244352047
H        10.38557817287334   11.37916483366310   -4.81178209755299
C        14.84032781264667   15.78135666568625   -4.35742364249028
C        16.29168427424121   13.62016566090968   -1.63373399809652
H        15.95911196797552   14.33213632253501   -0.89199344918271
C        13.25977451267087   12.37368323867267   -7.21171921404374
C        11.56849962527376   14.67743180979024   -7.43047947429095
C        14.27884455767535   10.54869067760927   -8.39161368233466
H        14.19011629487621    9.59969348938083   -8.89874270152322
C        14.51128426434831   12.97765755818111   -7.08316583486317
H        14.59166506178943   13.92477400081964   -6.56130143584989
C        15.62422358926461   13.50560625281812   -2.84822246182411
C        10.43289720642717   12.16558990595888   -6.79976678788498
C        13.67931239076214   15.33001256231254   -1.78757918677147

