106
CSD_code = DEBTEK | q = 1 | S = 0 | Stoichiometry = C54H42ClN6P2Ru(1+) | MND = 6
Ru       29.87489295618994    8.48135829601436    1.73076778194814
Cl       31.26744259655521    8.42900601839045    3.65512286538654
P        29.64635309155970   10.70879109308633    2.43263308193832
C        28.99349935536286   11.16346762977812    4.06859873803027
C        28.56489008085522   12.48100707527074    4.23824317786692
H        28.62886090166427   13.17675897355918    3.41196466228362
C        28.06591513469728   12.89156489267255    5.45818358113802
H        27.73813927188695   13.91193819575244    5.58708629344960
C        27.98955161694060   11.99679533725057    6.51586009224874
H        27.59830995587247   12.32163993504029    7.46779165499712
C        28.42531993022421   10.69352168084807    6.35303927984039
H        28.38146626813721   10.00002283513254    7.17918176655862
C        28.93005404335199   10.27452524316926    5.13298129216632
H        29.30985931377684    9.27100049691150    5.01741050867926
C        28.36069526127830   11.47349384511218    1.37748792770096
C        27.04703075823207   11.17019210315244    1.74544558449174
H        26.86184537755047   10.66191391845833    2.68483350722572
C        25.98525007261323   11.53312893918729    0.94013870119301
H        24.97692353913385   11.29642550785446    1.24470625714355
C        26.21762812307801   12.18805344783652   -0.25849491320935
H        25.39221315963832   12.45774980775531   -0.89904386922086
C        27.51394087838684   12.50055837336801   -0.62850326908112
H        27.70263470991848   13.01705330197536   -1.55745325784717
C        28.58079693591635   12.14560460525091    0.18060731834924
H        29.57834669533596   12.41747593325884   -0.12554140693389
C        31.18616606370704   11.67834773936708    2.36571102529298
C        31.82585738577342   11.99076665090023    1.16698018786335
H        31.39294780623955   11.70923120279959    0.21761994953817
C        33.03295381114334   12.66588201677250    1.17404554336523
H        33.50851618963333   12.91437261795938    0.23665487043661
C        33.63193753488729   13.01322405430384    2.37305051551705
H        34.57483885326296   13.53794415487700    2.37430220497514
C        33.02138945267983   12.67371921856059    3.56884869672129
H        33.49081347189805   12.92487591322965    4.50758914449083
C        31.80942891860913   12.00875991100140    3.56902852086837
H        31.34902136463108   11.73590389862802    4.50706068772586
P        30.23994751070818    6.20947173450394    1.21873292418836
C        29.78831308912571    4.91235853259033    2.40901441845862
C        30.03790137444165    5.14238057074112    3.75902752133298
H        30.45566719641428    6.09153769414336    4.07007015199148
C        29.77890267683929    4.14799856610058    4.68542980729265
H        29.97189753324476    4.32675463791456    5.73242159171416
C        29.28429116386345    2.92286717388339    4.26914645640039
H        29.08058555034387    2.14782974069059    4.99216572697360
C        29.06751664507680    2.68272894419715    2.92119324722853
H        28.70384977242671    1.71999449841340    2.59479278469549
C        29.32556169834328    3.66882160353216    1.98710563048376
H        29.17199339339692    3.47211760041087    0.93531089307652
C        29.20610871597257    5.91806394977895   -0.24520776084845
C        29.68015461480715    6.28410474096042   -1.50518624807129
H        30.71836262416721    6.56931707644955   -1.62546312239265
C        28.83128690527803    6.28246126097051   -2.59701780893800
H        29.20501331697154    6.57040546997403   -3.56779780641693
C        27.49891022401592    5.93431110353618   -2.44024260847812
H        26.83646179126666    5.94365083376002   -3.29197542204612
C        27.01680627414889    5.58387552590263   -1.18960161344386
H        25.97785359509590    5.31858752951665   -1.06453738965104
C        27.86043756419417    5.58761532644847   -0.09300757712725
H        27.47995173599381    5.32491604293999    0.88640807116247
C        31.90655523551496    5.62552713888718    0.79025012049385
C        32.95095851319616    6.04508201891943    1.61071991480342
H        32.74401482315705    6.71873737753911    2.43215373272810
C        34.23294712761080    5.57734989774092    1.38837564827035
H        35.04151667796244    5.90372660819893    2.02472751825029
C        34.47504418718488    4.68262037511402    0.35844215298319
H        35.47541367645295    4.31706556609068    0.18370026713405
C        33.43034567835973    4.24029682786102   -0.43741518234313
H        33.61572571633965    3.52546084397986   -1.22503591073453
C        32.14401860295713    4.70117597231686   -0.22231286160822
H        31.33126166990839    4.33819308137324   -0.83525651625436
N        28.84531756210704    8.76820335777311    0.21593357551813
C        29.41282688337434    9.19932197972517   -0.92393892267791
N        28.71452327183667    9.49766740342063   -1.99533220818265
C        27.39051535518124    9.33845145299753   -1.90181462282312
N        26.75307610765402    8.89765751979454   -0.80773601465554
C        27.51061389541404    8.62553222540757    0.23352539573968
N        28.02343390259196    7.96314635558360    2.44824466280900
C        27.04502961933658    8.12876165323191    1.51686918003722
C        25.71366966992266    7.81319943080019    1.77176065129439
H        24.99375610501804    7.97545467012364    0.98637016127194
C        25.36757335561470    7.30225912662189    3.00664407257920
H        24.34417314344340    7.04951515159372    3.23408064447295
C        26.37418624899989    7.11270325716640    3.94840085998729
H        26.15432260968869    6.70504417678343    4.92151953951056
C        27.67444427110149    7.45457355603517    3.62910202472426
H        28.47623742888365    7.31204716316363    4.34143602605874
N        31.34524701754112    9.01753426115858    0.43268626234098
C        30.85815640693973    9.30102448803331   -0.80487607477093
C        31.68448618801801    9.65930875206728   -1.86534685377260
H        31.22515629281166    9.87375339840912   -2.81725604816853
C        33.04943898415431    9.72606660446255   -1.65596079463029
H        33.71718272628200    9.99289981823690   -2.45969973034103
C        33.54004600567801    9.45200178655502   -0.38410470620185
H        34.59507808713197    9.50638395979935   -0.17141551471492
C        32.65801311169545    9.11319001604808    0.62624725682152
H        33.00707444219356    8.92314773751660    1.63372520711576
C        26.58251220996134    9.67593567516337   -3.06828239564062
N        27.23996981626117   10.05405771998667   -4.16286313802738
C        26.54133355558046   10.37257319414487   -5.23130083914671
H        27.12123778352887   10.67224312226545   -6.09406348460515
C        25.15128824214201   10.33597704336163   -5.27957272198494
H        24.62602710400972   10.60733907292637   -6.18138969736838
C        24.46549220907050    9.94249135767380   -4.14073298187653
H        23.38624113138481    9.90040699849759   -4.13458371161494
C        25.18916045478385    9.60476112908033   -3.01040785475358
H        24.71185104518996    9.29408465402832   -2.09563665883121

