88
CSD_code = DEBVAK | q = 1 | S = 0 | Stoichiometry = C43H34CuF3N5P2(1+) | MND = 4
Cu        6.83773219374737   13.37149663623788   -3.69878900037025
P         5.28040707561926   13.25140077690721   -5.35685138356182
P         8.59744135953062   14.74280007877048   -3.78542804020666
F        10.07679636591757    9.62374464972619   -4.49445269656439
F         9.43479132021483   11.60950682779051   -5.01265275629769
F         8.72444440378989    9.92322677744244   -6.14295202968916
N         5.47825140687854   12.93158353656100   -2.16305850950816
N         4.28475466037830   11.01528330362863   -1.42282849414695
N         6.35187695599366    9.44510212529792   -2.76749537368639
H         5.77827270745891    8.75832836472757   -2.29809237754683
N         7.35848692411994    9.08585377740587   -3.55143123651222
N         7.21493589871504   11.29961178190014   -3.49697424243027
C         4.56029147703676   13.71286874612914   -1.60289626305125
H         4.71516104362485   14.77941211661702   -1.69627411130168
C         3.47178198573478   13.18703833167288   -0.92935844724459
H         2.73358852874173   13.82284589341329   -0.47156741095510
C         3.38369999264966   11.79770853946102   -0.85887422361390
H         2.57900194904071   11.29574511947298   -0.34131414685055
C         5.28578399429827   11.60785435125728   -2.05415890723501
C         6.25976533998251   10.78877948399023   -2.73085411317804
C         7.86268083634461   10.22259548383150   -3.97847123975728
C         9.02989563217359   10.33665349031563   -4.90756691064819
C         3.80771934101827   12.31055038540577   -4.86907778990350
C         2.69478919662065   12.93625256875414   -4.31418499872993
H         2.64092648203390   14.01663661846837   -4.29768148079080
C         1.65841051497564   12.17519746456362   -3.80392378704290
H         0.78898196195985   12.66369866472502   -3.38985862061652
C         1.73286153941358   10.79167014834104   -3.82339753928474
H         0.92250268637022   10.20200821175525   -3.42386354688842
C         2.84472552249311   10.16350968102663   -4.36285644296458
H         2.89918108095731    9.08550795923583   -4.38442178496462
C         3.88232642451682   10.91722449290252   -4.87677695114148
H         4.74874627192621   10.43423864923089   -5.31233745159352
C         5.75450701930196   12.51636686370949   -6.94753094611631
C         4.83956081313699   11.93935385085468   -7.82481987412311
H         3.79132323197608   11.88551211326808   -7.56294276221316
C         5.28411108245064   11.41899649873198   -9.02633829637064
H         4.57689088386680   10.97095894038675   -9.70815561291607
C         6.63000388102770   11.46792661219266   -9.35592479134529
H         6.96720968131129   11.05752268861494  -10.29517293197297
C         7.54225495670889   12.03272044312157   -8.47958678348547
H         8.59179244162546   12.06249098256019   -8.72808007562999
C         7.10684539357970   12.55243940681618   -7.27505533623378
H         7.80923695528327   12.98622876879396   -6.57536403505352
C         4.63566984067056   14.89877781430204   -5.78342474665111
C         4.93765912612815   15.93938942629088   -4.90859151572819
H         5.53628788894057   15.73032810026550   -4.02744967447947
C         4.49450101070070   17.22222314450653   -5.17253373682735
H         4.73744716937650   18.02642591629819   -4.49384105975795
C         3.74922453104422   17.46939317661776   -6.31462898050056
H         3.40417215439592   18.46975578023439   -6.52617450494897
C         3.45186091140195   16.43628901235152   -7.19029266457610
H         2.87523646735287   16.63440167552616   -8.08105439815632
C         3.89417958412313   15.15108589863459   -6.93225864602759
H         3.67169259221114   14.34919876684968   -7.62096529419400
C         9.17233122750610   15.03022565897850   -5.48172712212744
C         8.30290050261578   15.68814971931173   -6.35268182559661
H         7.36334600627977   16.07467668489346   -5.97841681417936
C         8.64116767143496   15.84285682862851   -7.68282821165327
H         7.96835257208735   16.35806416677097   -8.35190674498082
C         9.83982101537032   15.33055842424203   -8.15613409001314
H        10.10262361776463   15.44993382927512   -9.19611793804259
C        10.69655831252885   14.66199332798061   -7.29735063078090
H        11.62632375866742   14.25778268126655   -7.66824864216776
C        10.36594175719194   14.50360874236616   -5.96242670804398
H        11.02719132626586   13.96894087496066   -5.29669105193652
C        10.09367077952208   14.29982064240674   -2.85603360215693
C        11.19262489566252   15.15325847932928   -2.80636152914975
H        11.16423153676945   16.09841692827533   -3.33072841598382
C        12.31309059335194   14.78181381216558   -2.08773869434900
H        13.16864843067350   15.43900159825131   -2.04926842381581
C        12.34107340187972   13.56789699277104   -1.41724618234823
H        13.22011008776769   13.28193855979056   -0.86027953192719
C        11.24413445602337   12.72288467257074   -1.45688668870243
H        11.26833549646504   11.78004766693241   -0.93111374170548
C        10.11855537073269   13.09004617945217   -2.17239668287602
H         9.24827879078807   12.44640444828859   -2.21151916706766
C         8.24901702536775   16.41092842680879   -3.14251335939071
C         7.51620578639931   16.46167232120149   -1.95880710864322
H         7.19920121015030   15.53058262489015   -1.50173521994455
C         7.21099442816174   17.67799147880969   -1.37934193881675
H         6.64716541345650   17.71556104863705   -0.45891933901202
C         7.63211184377775   18.85249748273321   -1.98426210904576
H         7.39248357309976   19.80468327098125   -1.53624066913710
C         8.36102885420856   18.80549624120598   -3.16116643889583
H         8.69094413231240   19.72139088254691   -3.62786498703791
C         8.67354354637691   17.58911217384355   -3.74373905662443
H         9.23951188846337   17.55814221145445   -4.66379835822096

