61
CSD_code = DEBWUC | q = 0 | S = 0 | Stoichiometry = C14H42P4Ru | MND = 6
Ru        3.48090282817130   -0.14836441381400    3.46115411495519
P         2.34405250584347   -1.01383288672432    5.23696165633010
P         1.94343528888604    1.53923658333652    2.99587851865998
P         4.91587997966449    1.29406721079609    4.55805044269423
P         2.63613858307767   -1.60586949508969    1.89304083766514
C         4.99850944488048   -1.66571469242811    3.89290864387383
C         6.30395979867394   -1.64990071307759    3.10076825854369
C         2.40249297382606   -2.83200617787472    5.52951988338546
C         2.72742092719755   -0.49817323290993    6.96383513898276
C         0.51326324722644   -0.81177791436037    5.32141005449865
C         0.36369153811356    1.30994906658736    2.05683887344551
C         1.18764140532519    2.56560456319074    4.35596090196000
C         2.60916334492093    2.89807137476440    1.94146860246186
C         6.11135299149169    2.12738542613245    3.43528907737487
C         6.12066888534950    0.74118239489368    5.84320313426013
C         4.36119747944699    2.81476421016301    5.45959473606093
C         0.88814096798378   -2.22138624162626    1.85664285687216
C         2.75774273189518   -0.94775483682428    0.17908777509274
C         3.41344206466280   -3.24169748620241    1.55030739177611
H         4.31114072212426    0.29900531235967    2.24647309433638
H         4.55859083474570   -2.66105875490223    3.74969748419716
H         5.26404243193439   -1.63231873056121    4.96255385223706
H         6.11561544379094   -1.66807974864827    2.02800575073017
H         6.92051543918150   -2.52092655517451    3.35174447294602
H         6.89159049564077   -0.75829207120287    3.31385837555675
H         2.09522510769359   -3.35366443028910    4.62390563841106
H         1.74237358436901   -3.10671038252958    6.35329165853431
H         3.42281933220537   -3.12401401846938    5.76975610309056
H         2.65486265743765    0.58530423801082    7.05072877885022
H         3.74671029733073   -0.80256444524806    7.19768326777996
H         2.03990503900790   -0.96645522832157    7.66940712068251
H         0.06769568704729   -1.18526203683529    4.40122535703149
H         0.27455163774018    0.24478609970031    5.42121377200886
H         0.10282820640690   -1.35760856445696    6.17205630021574
H         0.56188624995129    0.86188467202784    1.08540803059585
H        -0.11957375851910    2.27775029907059    1.91569971864908
H        -0.30396488789673    0.65972200718814    2.62078853091416
H         1.65685882987743    2.33174935722794    5.30833800752286
H         0.12339325277433    2.34676250652251    4.43008001432557
H         1.31155617278464    3.62755446267217    4.14617735742907
H         3.43543999609715    3.38070428358973    2.46019276587277
H         1.83957309631267    3.63461511281224    1.70650164775642
H         2.99582831143604    2.45666982182237    1.02351226837927
H         5.56207599324626    2.72006914751747    2.70666503829986
H         6.66854319149494    1.36652668576926    2.89450723828647
H         6.79514818716702    2.76617774644342    3.99590863776836
H         6.73301160721422    1.58934397025809    6.15038435688702
H         6.76201000050828   -0.03878930712789    5.44272441819942
H         5.58842369355065    0.35225114028694    6.70895382663366
H         3.74079992160826    3.42470811575883    4.80710331500135
H         5.22913729191075    3.39440451538335    5.77401543985953
H         3.78496581261760    2.53798487536281    6.34120278380859
H         0.18693267372971   -1.39168202080435    1.85562919251268
H         0.70888376355335   -2.83227696333450    2.74100282568863
H         0.72639156744848   -2.82924261866387    0.96644072206874
H         2.37022261526544    0.06802212802216    0.14330904845912
H         2.22363598372322   -1.57946499727947   -0.53170859440978
H         3.81660070795659   -0.91330624637926   -0.07518103525310
H         2.98513460017337   -3.65567142046796    0.63662293819325
H         3.23337250258587   -3.92987639652203    2.37465146462220
H         4.48524872013556   -3.11181429952123    1.42484811642858

