40
CSD_code = DECBES | q = 0 | S = 0 | Stoichiometry = C14H22MnO2P | MND = 8
Mn       -2.43691656111951    5.38847988377539   12.40285822923605
P        -3.23390828795798    4.34735560254406   10.54871444481729
C        -2.83897320637540    6.99160107765582   11.78859051771124
O        -3.10665535282908    8.06456224403434   11.44142704332421
C        -4.02175548551196    5.37296904096547   13.17321587156208
O        -5.04973635326515    5.38973838898640   13.70796967185856
C        -1.39535728477913    3.93903779816021   13.63165001006114
H        -1.70688381444204    2.99545907824356   14.05993509206003
C        -1.41913942198822    5.19054979037067   14.29028021076893
H        -1.77187530425064    5.36788822787871   15.29823349636922
C        -0.72465927344693    6.12185508538161   13.48330504122503
H        -0.45667357681982    7.13050284207349   13.77126806855753
C        -0.27274246373745    5.44519978572852   12.32616013751724
H         0.41886206673025    5.84627138628480   11.59640833916674
C        -0.67256373681163    4.09590318422995   12.43099478412413
H        -0.35709357465884    3.29091252203930   11.77908141903922
C        -4.93836785223702    4.88125767596650   10.11884124089800
H        -5.62051049724720    4.50392266420786   10.87920181969488
H        -5.23477552206384    4.52834079389045    9.13209011049160
H        -4.96733875443345    5.97086640710267   10.15457105006553
C        -3.41165261294657    2.48764737602381   10.65098912692334
H        -2.40121900352420    2.11584611367359   10.86233484406609
C        -4.30368714190447    2.14376786041629   11.84174183299484
H        -4.04474798400443    2.75788277495089   12.70486957115628
H        -4.18933783611746    1.09551003554179   12.11223475334352
H        -5.34986760844151    2.31889645007227   11.60257721198323
C        -3.93022493148100    1.81370541904377    9.38445865701916
H        -3.25073501358526    1.94033182260889    8.54587655093008
H        -4.90696856492404    2.20301344462837    9.10912797638759
H        -4.03668769176371    0.74546173967089    9.56898553767170
C        -2.39683689505592    4.60472599519892    8.89938799733396
H        -3.04536996213360    4.14070759093336    8.14611327826626
C        -1.01392784813570    3.96656843846868    8.84620214666968
H        -1.05296141397242    2.90124213333794    9.06527186531934
H        -0.35219324101820    4.44819107449147    9.56168411735766
H        -0.58337087550436    4.09246473669528    7.85355959352085
C        -2.29943828984286    6.10006829090571    8.61932956927491
H        -3.28326681301027    6.56104463710552    8.58531379150954
H        -1.80456574184715    6.27267355378073    7.66507938595033
H        -1.72237627353883    6.59007703292840    9.40256559377426

