61
CSD_code = DECHOJ | q = 0 | S = 0 | Stoichiometry = C30H23N2OReS4 | MND = 6
Re        3.14370769580049    0.32202049956844    2.34666748087460
O         4.22601389039596    1.25732978157289    3.20979857528863
N         1.61454307175427   -1.16656192075873    1.61030654046846
N         2.84157448854642   -1.16359007569701    3.93375983204310
S         3.01005467684806    1.58729172039988    0.35750265508752
S         1.04939555815339    1.46523427210636    2.84521901938726
S         4.55939352923382   -1.22606256977430    1.11318445164737
C         1.00766779732597   -1.12367515909964    0.42559052726465
C         0.06300697006910   -2.05084944844925    0.03314460028359
C        -0.28013063508331   -3.08280589282840    0.90327257561183
C         0.33533916575854   -3.13875650023446    2.13457425130685
H         0.11088001042006   -3.90993535916921    2.85473468557689
C         1.27919802098001   -2.16202658064887    2.45792744556270
C         1.97620669238000   -2.11877343375841    3.70913136192909
C         3.41172125990253   -1.25975646253150    5.17006075947362
C         4.36351241970914   -0.39903208156500    5.71224286419185
C         4.83335546181837   -0.65054550120464    6.98183125035573
C         4.37068464371454   -1.74195355447845    7.71742715733076
C         3.42594789555825   -2.60488387985279    7.19776434816171
C         2.95034839031685   -2.35671006553880    5.92172260927727
S         1.77155863738838   -3.25265397671928    5.00848257622248
C         4.59253617045135    1.54039046316830   -0.42090510544315
C         4.66776273467654    1.45671806954957   -1.80532360444687
C         5.90336448960966    1.48638953944757   -2.42504951974725
C         7.05971874920847    1.60164957010640   -1.67166033549652
C         6.97931678238490    1.69495592798497   -0.29089188383316
C         5.75012400283300    1.66758999920716    0.33773575052082
C         0.45511405512283    0.56915177919341    4.24424134157377
C         1.06465963461051    0.73198537826651    5.48542368758394
C         0.61491481524943    0.01053852762518    6.57371917703896
C        -0.44933201956899   -0.86887461349152    6.43661974522127
C        -1.07399568638920   -1.01161610260737    5.20867987497773
C        -0.62697332546254   -0.29521074916716    4.11282306912393
C         4.66881912547399   -2.63607342208085    2.16903521083627
C         5.47062069139698   -2.59053443474103    3.30547562690716
C         5.53828397212596   -3.68578118639114    4.14442838085895
C         4.81731003875837   -4.83391705493332    3.85219056448100
H         4.86604281409467   -5.68592265724134    4.51386793029296
C         4.03976930338435   -4.88914806437664    2.70710416870235
C         3.96458800753004   -3.79561086117061    1.86323998341656
H         1.29849164754525   -0.30625851011618   -0.22273223720997
H        -0.39634934150939   -1.96740011739218   -0.93821075816698
H        -1.01376927658124   -3.82175879869321    0.62013366822297
H         4.69976170752733    0.44073083104113    5.11830957947299
H         5.57038863079552    0.00632260901729    7.41695611312053
H         4.75557632800859   -1.91557261373140    8.71066520457016
H         3.06324122140000   -3.44894862418327    7.76215184240197
H         3.76041298537971    1.37172265381723   -2.38367037699256
H         5.96296603850544    1.41610413417542   -3.50148212013550
H         8.02323527810747    1.61816668177401   -2.15952651905775
H         7.87923994863671    1.78895040930316    0.29878862448376
H         5.66918269098186    1.73760577715562    1.41610639863300
H         1.89747723175777    1.41483848638314    5.57207285037853
H         1.09824750812775    0.13067991968116    7.53269577712252
H        -0.79396556338170   -1.43715198904276    7.28776268821269
H        -1.91007756393704   -1.68752789677243    5.10173401978455
H        -1.11116537972546   -0.39569130461933    3.15189283190819
H         6.01933327395967   -1.68553408257034    3.52233257894097
H         6.15193969981180   -3.64237213119655    5.03269345532786
H         3.48493637043588   -5.78586703592246    2.47182322523050
H         3.36357256774005   -3.83072231779495    0.96550352382528

