68
CSD_code = DECJEA | q = 0 | S = 0 | Stoichiometry = C35H31PZr | MND = 12
Zr        2.75326189541184    0.63739675138699    3.73419345597377
P         5.67398581681195   -0.95782149972850    4.03134682552134
C         1.25670142368024   -0.97048365702233    3.42008502079980
C         0.08831681603211   -0.74807594369180    2.67258836255688
C        -0.91721816640033   -1.69758998296321    2.55265278602444
C        -0.79951671008879   -2.91960135206929    3.19042240854474
C         0.32690312616057   -3.17440380638483    3.95286753771553
C         1.32693718106363   -2.21898080817107    4.06439043529995
C         4.13257658746093   -0.78956103520639    4.68243496634121
C         4.14983295320753    0.87915642560410    1.67390273402291
C         4.18152203531220    2.16908714241540    2.25324156695376
C         2.90116425042621    2.73198196680123    2.11855507715310
C         2.06702521745405    1.79106835106011    1.49258734396439
C         2.83668699734662    0.64441363584265    1.20539230832263
C         2.88610690006225    1.70575626635453    6.07141289808896
C         2.54348675854109    2.72084761338903    5.15452417471335
C         1.24508202767742    2.44647898064849    4.67082015202379
C         0.79094069987471    1.26384044168295    5.28751898767223
C         1.80311306495273    0.80671517634309    6.15353054818654
C         6.83078972055745   -1.91013249858058    5.07472955956452
C         6.39822326732420   -3.19156810140958    5.40304448843087
C         7.15806245937804   -3.99183128129342    6.23326997963468
C         8.35215356337565   -3.51138676028256    6.74948882667554
C         8.77972282644022   -2.23262615194061    6.43376302991232
C         8.02324755092384   -1.42915499990306    5.59754095450744
C         5.64425531699298   -1.97886130217768    2.51969793826739
C         4.41307752070765   -2.34389488484741    1.98656347463429
C         4.35885359538633   -3.18860356316363    0.89332083725321
C         5.52942844712279   -3.68884943983310    0.34158732092141
C         6.75474288883986   -3.35516361247305    0.89419438783771
C         6.81491116852784   -2.50737470995653    1.98671785707820
C         6.74366378063115    0.52214193323216    3.60185182684836
C         7.51465473519516    0.73488592213942    2.46555292123870
C         8.16982739259758    1.94219881509028    2.28882095017867
C         8.07179309452693    2.94240446720204    3.24163653157863
C         7.29746144706447    2.74350934362478    4.37520117989961
C         6.62365319675275    1.54832158311289    4.53792905087730
H        -0.06364740111214    0.20508911172892    2.16464514736925
H        -1.79804092978546   -1.48073964634968    1.96231111158364
H        -1.58067652296694   -3.66116291253879    3.09958801234516
H         0.42559888545460   -4.12213894106439    4.46529917403600
H         2.19828982483179   -2.45397668757568    4.67659958208576
H         4.23951934650882   -0.71310584734725    5.77773180210986
H         5.01351610077728    0.27175404002795    1.44059321408570
H         5.07013150059613    2.69496300900540    2.58048180143587
H         2.63592857206384    3.75591121638339    2.34667433490372
H         1.05911157630210    1.98251198638587    1.14647590922254
H         2.51909869786560   -0.20318917490410    0.60906578110360
H         3.75790218603338    1.70539248990951    6.71583044889875
H         3.11333532590666    3.62777320932522    4.98221403120029
H         0.64314445445533    3.10176012799019    4.05195611295659
H        -0.20592759637926    0.84837645550817    5.20910704052483
H         1.72290711904563   -0.03551019807883    6.82913830733879
H         5.45605419537986   -3.53786151519550    4.99667443186735
H         6.82352333649146   -4.98870121617956    6.48106159267443
H         8.94863217804344   -4.13386795409681    7.40021483274581
H         9.70829902800046   -1.85823517737510    6.84040695921361
H         8.36313073969480   -0.43339315844745    5.34833562490935
H         3.50675772478930   -1.95710189738688    2.45255799631005
H         3.40214224792893   -3.46611981946205    0.47525995294481
H         5.48560710314873   -4.35056338501209   -0.51087124598990
H         7.66497445385519   -3.76227496799767    0.47792903092316
H         7.76816528357130   -2.26179141922235    2.43634135078332
H         7.60677899215144   -0.03704316862512    1.71518962407746
H         8.76246022382164    2.10288888891608    1.39971312301134
H         8.59001561488233    3.87899857568418    3.09785631766637
H         7.21319697085457    3.52338409528766    5.11885015250174
H         5.99173992036557    1.37933445596289    5.40788973995023

