73
CSD_code = DECKUS | q = 0 | S = 0 | Stoichiometry = C36H26N8O2Zn | MND = 6
C         0.69955720037472    6.02838812975061    2.03870749585461
C         5.34672874950610    6.82451721382762    4.80500270101027
C        -0.70749393417942    6.13111769179242    1.62701823934045
C         6.76338673930665    7.10240263946902    5.08053385135744
C        -1.63521872894564    5.14540934986690    1.97819578445456
H        -1.31063485798032    4.27782648201194    2.52677907321554
C         7.65877452968599    6.06658695210352    5.36508644626967
H         7.30190657651479    5.05240465922313    5.42042259117580
C        -2.95602128133339    5.31039214513848    1.60437723466977
H        -3.69292103931210    4.56227137883361    1.86023680064884
C         8.99006435722245    6.37553724584363    5.57404509108616
H         9.70258288062039    5.59447122244908    5.79858716327158
C        -3.32108837626765    6.44639411539141    0.89732477658750
H        -4.34240690908272    6.61614029422496    0.59361851386723
C         9.39726739239862    7.69886733990291    5.49245167581036
H        10.42801779060945    7.98064140559292    5.64170604070718
C        -2.32676732456702    7.36114635472298    0.58572498462372
H        -2.54974135656659    8.26262432872137    0.02803643286712
C         8.43278580090419    8.65606869474315    5.21672398536851
H         8.68910139717979    9.70637225514915    5.14933687613060
C         1.78043377384800    6.56819210641550    1.21888772546804
C         4.29440123932274    7.77034823390205    5.16491589002966
C         1.59821177555541    6.99875227522863   -0.09889331518854
H         0.61664385093524    6.96570876951726   -0.54010512760172
C         4.51270551475529    8.88050910671983    5.98662349229876
H         5.50283236201748    9.08268942433546    6.35814026557871
C         2.68362992305777    7.46996897556881   -0.81064161930200
H         2.56227447327195    7.80559379884185   -1.83020718041298
C         3.45178158244473    9.70709162048507    6.29949864005483
H         3.60136279749382   10.56896497182617    6.93327927947155
C         3.93071526286883    7.50165362407525   -0.20186564138941
H         4.80227340818818    7.86376852523715   -0.72322068224808
C         2.19250881718652    9.41352976738509    5.79455515059404
H         1.33907331756230   10.03436234742926    6.01537897135787
C         4.02797351984881    7.04938302661941    1.10335156779049
H         4.97602829769634    7.05080002969474    1.62445783190702
C         2.05913682347874    8.29131845080527    4.99428620690784
H         1.10029417098257    8.01580335576306    4.57591757015711
C         0.92542198159586    4.51779951906439    5.13145426586299
C         5.03012618884968    3.81803045426703    3.14422060867754
C         0.07747678643666    3.81915025884288    6.12066241091268
C         5.83954780505803    2.64467818969282    2.75237969100683
C        -1.30874542887716    3.78407092267075    5.98814647807428
H        -1.76390488610503    4.29124368926572    5.15236989819340
C         7.22577955650521    2.64463038752749    2.88937787694038
H         7.70996061510355    3.52774433870106    3.27490176714122
C        -2.07479591181206    3.11322534413114    6.92229319447944
H        -3.15019013715073    3.08686493866721    6.81986025102474
C         7.95531509003957    1.52832108032595    2.52725345947398
H         9.03075983536978    1.52890884876113    2.63261462446347
C        -1.46810399970450    2.47310741521949    7.99217245188410
H        -2.07071328188978    1.94783744252543    8.71917631975972
C         7.31184345789908    0.40600178062793    2.02844627695577
H         7.88587216493036   -0.46569744979471    1.74879866466485
C        -0.08953907791891    2.50744903938250    8.13007716776066
H         0.38211409408954    2.00848345434993    8.96427082305804
C         5.93316878263601    0.40206361719053    1.88752071577913
H         5.43283180890628   -0.47304257733901    1.49872060947552
C         0.68112238890761    3.17876547937334    7.20035133092378
H         1.75663898242434    3.21681972579508    7.28649067511210
C         5.19898565987472    1.51649640584193    2.24537434399876
H         4.12405689828199    1.53478416700740    2.14637506829443
N         1.09112239608387    5.47935131527666    3.14979866740538
N         4.92185018876837    5.74710188629788    4.21489568500487
N        -1.06337752562541    7.21453123122816    0.93305904434219
N         7.15985219069794    8.37555752588994    5.01850515149388
N         2.99364156587178    6.59898369399738    1.78847106161979
N         3.07025926958028    7.49936802954850    4.69022812810812
N         0.27252594424274    4.93273433236852    4.03150762138264
N         5.71032179654256    4.76636987095216    3.81238323988077
O         2.14443812449576    4.69096292130637    5.35164195241443
O         3.81710829309932    3.88016289920319    2.84595712976887
Zn        3.00456786618886    5.57722151322675    3.69806856086934

