55
CSD_code = DECNUV | q = 0 | S = 0 | Stoichiometry = C27H26AuP | MND = 2
Au        3.11857442684954    5.28142593918767    1.45131072865035
P         3.54651305789515    3.16513781207793    0.71035555378604
C         2.78425505578663    7.17098989263232    2.16476791117123
C         3.83944312973635    8.05602603698187    2.41798580676571
C         3.61323198303651    9.33426841558411    2.90734552137826
H         4.45260634575352    9.99314687995030    3.09318120795577
C         2.32957200556150    9.78641696147053    3.16701819467718
C         1.27492573010576    8.92329439986388    2.91962327009772
H         0.26286354432373    9.25571675825906    3.11563396695165
C         1.49341615850952    7.64382678780664    2.42907268689175
C         0.30305389674947    6.75681157481736    2.17795892268909
H         0.23936470649146    6.49640867181418    1.12095611018660
H        -0.62187394432638    7.25258853127490    2.46554665531507
H         0.38848291640202    5.82869849954024    2.74369282054528
C         5.25896373944603    7.63048097723329    2.15019287514168
H         5.96428683933224    8.38687120529404    2.48840325020876
H         5.41189159755829    7.47418227225737    1.08148885190823
H         5.48464321662756    6.69327359783005    2.65931942243892
C         2.09030563395876   11.17739655017341    3.67819217638306
H         2.90332843866651   11.49687781542284    4.32773692156496
H         1.15524408430253   11.23186621341345    4.23228601171316
H         2.03049270718358   11.87957581009812    2.84478824669944
C         5.28723939207484    2.67932219866726    0.87174896888021
C         5.70645025598986    1.43130520399011    1.31821665094393
H         4.97775489814867    0.67664503594463    1.58031308529687
C         7.05963563445053    1.16310617166612    1.42546616584508
H         7.38691394626357    0.19364101816018    1.77181602470273
C         7.99343851265898    2.13103320773731    1.09224738926816
H         9.04773833998798    1.91461914540598    1.18000543107211
C         7.57744226086381    3.37854734224755    0.65342290887674
H         8.30500083564361    4.13548414141169    0.40059476739193
C         6.22787753054223    3.65510196372638    0.54911711632377
H         5.88550987732759    4.62960488509568    0.22307212272374
C         3.16866182660237    2.82542622519383   -1.03096536094135
C         1.88393414649331    3.17016617731440   -1.44844021719693
H         1.19155312395742    3.59054403860033   -0.72909978613646
C         1.50638819185495    2.97480527875111   -2.76215698910505
H         0.50886483105924    3.23652192674172   -3.08273598484690
C         2.41389261226374    2.44895989790711   -3.66944391954210
H         2.12136752932549    2.29801957827880   -4.69784251845019
C         3.69679755461543    2.12300406818252   -3.26103496928635
H         4.40336014798673    1.71897803390071   -3.97127324015410
C         4.08080341888949    2.31112930038193   -1.94479725471027
H         5.08241150076443    2.05676617061630   -1.62660927375945
C         2.66068733951600    1.84332692271491    1.58346360113674
C         2.50523639760937    2.01220880410992    2.95722845477083
H         2.90421163480979    2.90294114219546    3.42722234736924
C         1.84199100516300    1.05618297229106    3.70260777993316
H         1.72391711910742    1.18816985358417    4.76788061116471
C         1.32232579247031   -0.06701477298036    3.07834498053264
H         0.79952511060849   -0.81291208375229    3.65831625224043
C         1.46709566877931   -0.23257306668069    1.71016712345412
H         1.05859486712331   -1.10737203221257    1.22556361227991
C         2.13411312597387    0.71800225367830    0.95840866183913
H         2.24718030109627    0.58852739414006   -0.10918165503854

