34
CSD_code = DECQUZ | q = 0 | S = 0 | Stoichiometry = C11H16Br2FeN4 | MND = 4
Fe        0.52917046328624    6.17981396616980    9.52663351308780
Br       -1.56233447015301    6.19664523647776   10.39213431400051
Br        2.42744946604388    5.25313153860725    8.67920724290315
N         0.09165225114933    8.74289316019783    8.20494311524616
N        -0.08120137900955    7.12054200544563    6.80816784299545
N         1.11149877196828    8.92263438784139   10.33581539357123
N         2.23163809407264    7.51694989828759   11.51437578005265
C         0.16107535786380    7.39041465946717    8.10905183276313
C        -0.29009686903471    8.27856853883765    6.10518089755897
H        -0.50284324543801    8.28310991774085    5.05622266035418
C        -0.18398600129077    9.30074853078805    6.98052215162528
H        -0.28348480313733   10.35711728590754    6.83935444381925
C         0.11599136367583    9.45824735959457    9.45036058710336
H        -0.87460521229375    9.37144990112863    9.93077921392870
H         0.33033836164024   10.51488856643188    9.25858114897380
C         1.32079731804110    7.59313596991483   10.51407237980820
C         1.87746676217417    9.65760011003244   11.20630675912590
H         1.85713780396262   10.72742416059632   11.22995775078596
C         2.57897338993013    8.77025975666868   11.94399629946421
H         3.28940037302663    8.93123029308523   12.72866767924170
C        -0.16275631533942    5.80030791265143    6.23147325726565
H        -1.11962319126518    5.70719051549845    5.70696359607442
H        -0.15153429373068    5.07730169071134    7.05615498712323
C         0.99417358639883    5.52316514538351    5.27903211152004
H         1.00747096596781    6.24603400875295    4.46665091433167
H         0.89068617604824    4.52731059102484    4.85793812598281
H         1.93951102831563    5.57597966313948    5.81226594598773
C         2.76162428700834    6.29019236777899   12.06392322122609
H         3.32744942356156    6.54460503063330   12.96338872526103
H         3.44550359893750    5.83601468551569   11.33864880538467
C         1.64977994723446    5.30498431333098   12.40383140068822
H         0.91662828714241    5.75872392701553   13.06694530498009
H         2.06790114043309    4.42403569827229   12.88274439214254
H         1.13544756281657    4.97714920703686   11.49130820560537

