46
CSD_code = DECREK | q = 0 | S = 0 | Stoichiometry = C15H24Br2FeN4 | MND = 4
Fe        3.00809207236386    6.17212413171663    6.38741443747585
Br        0.75439560876386    6.68125013845537    6.43641032478372
Br        5.25769990775928    5.65509275382269    6.04443851439578
N         3.46178954736786    7.36594057750830    8.99294232419096
N         4.02398054558665    8.73624038457926    7.42926511460652
N         2.93715043979619    5.04102900252161    9.05863186190105
N         2.83774585188383    3.48020011037779    7.57781956607425
C         3.46506893662581    7.52242603883681    7.64793182714571
C         4.39025193078956    9.30436710283770    8.62503152603236
H         4.87589546000326   10.25394373858361    8.69648493809331
C         4.03246793673363    8.45287306009842    9.60711033306201
H         4.13389104539462    8.52673617765558   10.67001643747931
C         2.76110775945418    6.32099967630794    9.68354074349259
H         1.68367774110961    6.56430384941120    9.69118189009110
H         3.12274054025277    6.26858125369391   10.71594955785302
C         2.85642857755932    4.82625680731042    7.72410107012015
C         2.99352804380425    3.84911140739706    9.73722139911123
H         3.06647673538819    3.79610019467849   10.80371012002042
C         2.93929621758051    2.87504776543145    8.80674870855664
H         2.97130203841294    1.81430801939400    8.93508210754879
C         4.21046460237549    9.41154151010520    6.14390946652576
C         3.36502302586808    8.73754793516770    5.06354917795129
H         3.63241508193387    7.67972069457504    4.93404045356636
H         3.54419603130886    9.22391296065407    4.10798559659395
H         2.30643913813620    8.82711256839269    5.29872623889065
C         5.69607249552741    9.36743726528923    5.77542771056126
H         6.29724526820121    9.84358350021698    6.54671990188364
H         5.86268265427810    9.88823565187985    4.83661810967432
H         6.03218032616730    8.33979641034515    5.66733739194379
C         3.73355689218799   10.86429523563677    6.27608638654017
H         2.73265675230483   10.89671410309901    6.70145308223265
H         3.70368098925021   11.32594388753211    5.29290546177379
H         4.39983614126642   11.45383181359039    6.89982511285760
C         2.70116569775962    2.72227854450350    6.33289773936101
C         1.64930285117363    1.62349847732963    6.53704193683354
H         2.00580401599933    0.84005683057964    7.20012809399404
H         1.41322893999489    1.16666884899138    5.57983370777579
H         0.73601825233839    2.04610914740566    6.95067601063207
C         4.05767968797037    2.10550751163082    5.98038268806682
H         4.80044659339528    2.88247566656864    5.82130931620996
H         3.97355657085269    1.51402706228413    5.07295046994263
H         4.40614182982702    1.45981565088209    6.78330407082957
C         2.21313420221402    3.63474034618405    5.20797012774300
H         1.22157690453211    4.02090358455890    5.43523321578669
H         2.15427463321716    3.06798566957913    4.28218577288939
H         2.90693348528910    4.46682693240436    5.02476995690924

