53
CSD_code = DECRAF | q = 0 | S = 0 | Stoichiometry = C15H27B9CoN | MND = 9
Co        2.95339687669061   -0.03889550232163    2.60463361270334
N         5.57883425946197   -0.26829069799649    3.88973782617047
C         3.22657354152639    1.48950518389170    1.19712580782790
C         4.24337900905790    1.57968363506220    2.36136704193766
C         2.00543836393077   -1.48450370353969    3.50116365589352
C         1.06996847313340   -0.60260820267276    2.82811318205268
C         1.38303632855444    0.45243886907355    3.78105821672975
C         2.29532844756286   -0.41848036587240    4.46637072788995
C         2.17594344974088   -2.96258983184468    3.53848032121498
C        -0.05639794740460   -0.82477833099671    1.88305553807226
C         0.77370432242690    1.77456735363352    4.09869279603179
C         2.89678996979324   -0.40940459013290    5.82754459952521
C         5.77313695258824    0.61730989495675    4.90085601741386
C         6.34047643209202    0.27144138665109    6.10207295493197
C         6.75358200688652   -1.03647152820898    6.32716292986416
C         6.56437198640039   -1.94905236418348    5.28974820070558
C         5.99228602754362   -1.54442373822488    4.11333776947923
B         5.73384879237884    1.27113501856928    0.05520531570747
B         3.99106912965912    1.32670925141084   -0.32457094431095
B         4.65699662103026    2.39488923536712    0.89690206059961
B         5.85290777447988    1.49050457100701    1.79401609858106
B         5.96442366756902   -0.16491702905321    1.08640165786094
B         4.80009506882576   -0.23386639895654   -0.24096607208307
B         5.01563325670523    0.10025138496122    2.56817981748952
B         4.39622985281622   -0.99365567726366    1.32918468170771
B         3.18325880686322   -0.03990376947037    0.50448059523646
H         6.56466383656382    1.65550741906168   -0.68590758410478
H         3.46564815769262    1.80573195686112   -1.26356887608920
H         4.57709979362818    3.56933907496871    0.89950945090545
H         6.69070208057005    2.02692187185319    2.43015803193597
H         6.98426007478994   -0.75851058501135    1.14335953383873
H         4.96740835337918   -0.89439567893495   -1.20248629192360
H         2.34284953464426    2.12037793640010    1.26252708629884
H         4.01220212183124    2.27166963750618    3.17011719608468
H         4.39815096538024   -2.17486889518290    1.41680477385279
H         2.19259488410292   -0.39630299698650   -0.02980705947928
H         5.46947601546847    1.63436427650977    4.71455183297244
H         6.46648689247534    1.02715395436840    6.86164292087673
H         7.20294809247980   -1.33099833661103    7.26035537947916
H         6.86827973636569   -2.97765023602075    5.40192067375765
H         5.83218975871544   -2.22780257127295    3.29608409436923
H         1.37286699236350   -3.41518509708051    4.12517337167214
H         2.14022685481652   -3.37531554303470    2.53360571992201
H         3.12557577866193   -3.23065080507857    3.99689678833724
H         0.19507280904680   -1.60193114165342    1.16623362065869
H        -0.94405556576815   -1.14119986089992    2.43664184138594
H        -0.30148190899850    0.08762283675681    1.34339638700371
H         0.42168308011011    2.27151802199124    3.19612529367497
H        -0.08611438730212    1.63821415867607    4.75960521919121
H         1.48319346492394    2.42517294595018    4.60889133317730
H         3.63767101105425   -1.20004761905656    5.93058489310843
H         2.11655657715863   -0.57998298549127    6.57348643476811
H         3.36793352553249    0.54675420756691    6.05734352509190

