63
CSD_code = DECROU | q = 0 | S = 0 | Stoichiometry = C26H30Br2FeN4 | MND = 4
Fe        3.92647216668498    8.29420671829499    8.52272758055091
Br        2.83806384967688   10.18206983008833    7.84043021657421
Br        4.79075384621659    6.97842285846251   10.14179384105856
N         5.54736988193884    8.78661413014628    6.09068484340807
N         6.73948506333779    8.92019738151879    7.87137684717548
N         3.10577169427153    6.64744806024714    6.08269416656431
N         1.88683120574973    6.37024508488483    7.82668456770181
C         5.49362363530913    8.59800320930703    7.43505394391254
C         7.53843654765039    9.30143420924754    6.82213452563530
H         8.55187657744754    9.61491682231308    6.96825932620033
C         6.79081521186216    9.21200886559560    5.70297913714141
H         7.03393666955223    9.42292718910334    4.68186941470159
C         4.48366850327929    8.49376147818372    5.17162588415276
H         4.80373882615636    8.80810199753831    4.17705214401683
H         3.58887759352697    9.05681486033645    5.44946048254963
C         4.15979729892256    6.99336206898259    5.16736513775956
H         3.83823774205630    6.68811768118150    4.16912411689659
H         5.06793229599750    6.43478608523519    5.42571046173754
C         3.00681533203366    7.00751185240470    7.39016222909738
C         2.07104092707224    5.81755737663985    5.72385773236389
H         1.96669780756938    5.42876255272510    4.73186502619521
C         1.30747375388991    5.64289452053817    6.82104607910340
H         0.41382224362233    5.07361886007338    6.97516992955572
C         7.27146873422108    8.85975096232866    9.18912348101318
C         8.16598362464856    7.83352889945702    9.49796474857502
C         8.74289641275578    7.81628785136320   10.75635960823202
H         9.42693134115326    7.01933984645512   11.00885131574812
C         8.44642849796289    8.78575830562465   11.70416433313062
C         7.54049108816144    9.78235906564346   11.37643769149951
H         7.28344618593166   10.53129377304693   12.11188269562589
C         6.94296268278132    9.83721391347501   10.12597476042082
C         8.43817153560311    6.74178360593307    8.50885493569392
H         9.09763135326421    5.99495526717080    8.94120673853882
H         8.89749227802755    7.12813424725523    7.59944045372026
H         7.49908353591116    6.25988017137337    8.23794719890810
C         9.10003815700354    8.76098296860116   13.05171334503362
H         9.35244487762458    7.74349254002482   13.33942527149830
H         8.44593100091881    9.18972046866289   13.80693637679692
H        10.02051906991896    9.34593991178790   13.02971482747702
C         5.91880319922069   10.88237607467315    9.81551679246181
H         5.99895087436940   11.72370309302133   10.49899910943711
H         4.91786712816598   10.45272365813605    9.93810242252251
H         6.00473284517724   11.24675266281390    8.79278935368348
C         1.40157394394556    6.32647917106584    9.16552335989820
C         1.84552780433816    5.29628555689468    9.99927608314458
C         1.39487486466655    5.27053950162931   11.30828441303268
H         1.74978173394474    4.49453893654018   11.97020522094932
C         0.50490604178200    6.22252965469350   11.78814126178634
C         0.01693876989576    7.18072655255943   10.91339607143814
H        -0.71267762939537    7.89808064560148   11.26147897088690
C         0.43740042672612    7.24044828990222    9.59133468177571
C         2.75054369896234    4.22465542467336    9.47447555923347
H         3.59581752883804    4.65266197605968    8.94190698926278
H         2.20507952733096    3.57826435226225    8.78538584386213
H         3.13285844101008    3.62052563776324   10.29116321843889
C         0.04724057039660    6.17439913714721   13.21397832178776
H        -0.67190978137613    5.36563967595225   13.34928300943803
H        -0.42948038950580    7.10808530760000   13.50252090118792
H         0.88935528556206    5.98746306158034   13.87744098577834
C        -0.17950326049881    8.21284695613311    8.63449823686301
H        -0.91213838982019    8.83463812619602    9.14152606034314
H        -0.67808385659590    7.67783900461343    7.82550430048877
H         0.56608157310481    8.86309205126284    8.18404341634046

