66
CSD_code = DECSUC | q = 0 | S = 0 | Stoichiometry = C30H32AuN3 | MND = 4
C         5.66115195055936    1.47769971806268   11.08194373467865
C         6.81590609092420    1.13548009171094   11.79270203844700
H         7.78173549382686    1.08014772266407   11.31363697864000
C         5.63731547885447    0.91703774708454   13.72908040982050
H         5.66853741439517    0.68774391515542   14.78355834921215
C         4.44056101851352    1.25356927717446   13.08520555893323
C         5.50933381140454    1.79623731814888    9.67875446301588
C         4.19537098609696    2.12293852549030    9.26885671699182
C         3.98536999166048    2.40296457218978    7.93424463344621
H         2.97564671048471    2.62878147689087    7.62401772748247
C         5.01404597009613    2.39278253139131    6.98896513968430
C         6.29767918563174    2.07965629402905    7.42676774676920
H         7.12392491275957    2.05809736478062    6.73500950299544
C         6.54780276772368    1.78100574954632    8.75186102054146
H         7.55178995179618    1.53058425235202    9.06319520851256
C         4.69017892428304    2.70542607140412    5.53853282159150
C         3.70476670759166    1.64886175288317    5.01843834972531
H         3.46375102576586    1.84430208492948    3.97554011822863
H         2.78107762832166    1.65352644366234    5.59068320919497
H         4.14521637585837    0.65613408600727    5.09120303591872
C         4.05091806050878    4.09867573384749    5.45435314168793
H         4.73022650864130    4.84967977240931    5.85286793494594
H         3.12306662648526    4.14417724772321    6.01710930897996
H         3.83230904797847    4.34630481665281    4.41770914883645
C         5.92865503867431    2.69413965131745    4.63810931669659
H         6.65730795193246    3.43348054720677    4.96318146350015
H         5.63584963525653    2.93754733332602    3.61887644493495
H         6.39630324521832    1.71232084236719    4.62525090894003
C         3.10953014019056    1.38272200874814   13.63345523830630
C         2.10677709546594    1.77926966094745   12.71529093538340
C         0.82601894895316    1.94717250627821   13.20151654661940
H         0.05882471765231    2.25654272560712   12.50855635943820
C         0.48211749861348    1.71191968160983   14.53455474778191
C         1.49016740334114    1.31453471102157   15.40847729253118
H         1.27450201483417    1.12145867520739   16.44675527655410
C         2.79001750838340    1.15797347648499   14.97030892119419
H         3.55786893458142    0.85877361780129   15.66928475733207
C        -0.96688498391711    1.86983600950233   14.95860111867569
C        -1.80736870362982    0.83268910994184   14.19937917593894
H        -1.46903584146363   -0.17372782190931   14.43835291526665
H        -1.72959161186208    0.97147645048548   13.12426763246737
H        -2.85402150512296    0.92149942983230   14.48259899431749
C        -1.17023869681173    1.65390404725448   16.46106081652416
H        -0.58591307677720    2.36472438285757   17.04150033587162
H        -0.89687037089771    0.64267475995735   16.75375276449127
H        -2.21973403280322    1.79991028853624   16.70834784113712
C        -1.45154310840129    3.28325939002736   14.60700594900363
H        -2.47559103789073    3.41958407698721   14.94808808577015
H        -1.42754946587057    3.45513474645211   13.53473277995854
H        -0.82413156663992    4.02973465053192   15.09038986909511
C         0.06909978630568    2.02358685021516    9.97910916493061
C        -0.12497443674820    0.70083499064036   10.40017595168164
H         0.74345758171000    0.10463780078011   10.64518068438899
C        -1.39333687273423    0.17230450779176   10.50742186553263
H        -1.51749207981386   -0.84901635417104   10.83957201128248
C        -2.50729187228983    0.93573519411511   10.19038995096032
H        -3.49913704220313    0.51882313647470   10.27984063866354
C        -2.33054712508702    2.23921983688377    9.75510501079176
H        -3.18959788173742    2.84545003896723    9.50324206861841
C        -1.06558379115679    2.77909637583020    9.64956718007469
H        -0.93570129041792    3.79944459662854    9.31280995179860
N         4.50665197893804    1.51773110383935   11.76940560656685
N         6.78807279211862    0.86241877178782   13.08507830562216
N         1.32458879449012    2.53830896730578    9.84948251741766
Au        2.89577255342170    2.01996403988316   10.84038468998253
H         1.31527013408157    3.47049061840194    9.45890161560729

