74
CSD_code = DECSOW | q = 0 | S = 0 | Stoichiometry = C33H36AuN3O | MND = 4
Au        7.50551237451855    5.59367477636407    1.42438034602728
N         8.02833977702446    7.01810844520052    0.10662761159012
C         7.86501963258617    6.75924816831676   -1.19196639466810
C         8.26490902411591    7.76299400476935   -2.08418174058922
H         8.17058581629636    7.65643577750479   -3.15452710063888
N         8.78277194550875    8.90067794006447   -1.65700159465636
C         8.93643844939474    9.10786413807072   -0.36151900508560
H         9.37040252625261   10.05577035979933   -0.08033058453921
C         8.55486386625737    8.14736310553452    0.58475505204977
C         7.29924220516495    5.44633502239005   -1.45540030925286
C         7.02902991056971    4.63010893626254   -0.32677163089904
C         6.49793232615870    3.37683792511654   -0.56484703640443
H         6.28317414271833    2.75393859087431    0.29085868633033
C         6.22442837725598    2.88927362614544   -1.84505292211228
C         6.50036938179041    3.71776611892710   -2.92716929782922
H         6.30522161956268    3.39165393174398   -3.93582238726739
C         7.02950389835599    4.97999031466480   -2.73828630623798
H         7.23191783381169    5.60530684917551   -3.59619026757728
C         5.65104788625278    1.49095827201202   -1.99764797546140
C         6.64720696807775    0.48127529935233   -1.40887277804980
H         6.26155117291456   -0.53028891906460   -1.51645920991812
H         7.60060325795530    0.54470118301046   -1.93004716268874
H         6.82397340668774    0.66720318767822   -0.35312408738289
C         4.31812436787845    1.40963922361286   -1.24013572486453
H         3.89102463462676    0.41427357473808   -1.34332023002682
H         4.44670254094416    1.61691936209022   -0.18165858689846
H         3.61189450424480    2.13204193019261   -1.64423399308844
C         5.39458907003032    1.11173701130736   -3.45884244422812
H         4.98246314166599    0.10565138673485   -3.50421180489100
H         4.67802398782842    1.78827332829348   -3.91902593120740
H         6.31702911075045    1.12174908461651   -4.03526725328935
C         8.63964863427760    8.18091112374176    2.03555358323854
C         8.17852938707150    7.03184251896909    2.72816818444233
C         8.21672671847179    7.06281984743114    4.10938218234039
H         7.83488210457303    6.20359954278537    4.64273055030134
C         8.70183936338945    8.15279140400487    4.83692393085742
C         9.16562896407646    9.25340912481933    4.12419098759277
H         9.55385444557648   10.11838193594565    4.63687232989388
C         9.13101716288403    9.27344993381405    2.74324879394872
H         9.48424069876916   10.14765275090366    2.21502162583970
C         8.68340380935436    8.10074146280062    6.35484021012847
C         7.22191066066009    8.02558879088897    6.81951264640943
H         6.72262295848555    7.15213247632368    6.40900950963583
H         7.17741032536848    7.96878223888355    7.90511381556467
H         6.67797276033923    8.91107878036112    6.49666176395708
C         9.44171674147066    6.85430274764664    6.83396538527295
H         8.93804595777431    5.94180527578007    6.52879851859029
H        10.45190180988466    6.84570035342260    6.42842733265027
H         9.50646451174606    6.85373805340356    7.91996312978046
C         9.33362698581113    9.32985451974847    6.99648486293689
H         8.80007937938840   10.24023476575458    6.73333683392588
H         9.30576762409159    9.22952902049003    8.07965010251008
H        10.37431362632087    9.42483446657974    6.69375534286334
C         6.96530822148977    4.24076318123914    2.76187011961871
O         5.89729480859149    4.29582386353906    3.33695779734635
N         7.87882831585007    3.26233931495799    3.01919682731415
H         8.79561662030948    3.35777673352570    2.60814578388155
C         7.79509944350018    2.34190508870327    4.09971130460228
C         6.74412579696820    1.42774245701962    4.18148708274530
C         6.70142724416230    0.56861705608093    5.27241134484491
H         5.88897522745858   -0.13894718440641    5.35128160477368
C         7.68193661623046    0.60027729913959    6.24498549067731
H         7.63193090603767   -0.07474290769868    7.08633646453067
C         8.73360076683576    1.49233656092734    6.13574535203242
H         9.50545040251176    1.51323505519851    6.89149761383190
C         8.80350245545598    2.37309640444967    5.06783652901064
C         5.70055673410136    1.34938341882711    3.11379160982018
H         5.08770959759529    0.46023077191049    3.23797225339792
H         6.17065151234145    1.32330541625241    2.13118966092833
H         5.06067556048567    2.23064043532744    3.15295446030419
C         9.94391449561453    3.34111552130100    4.94540577661402
H        10.50763305420846    3.38284484689204    5.87383275960386
H         9.58603721052309    4.34232363838230    4.70828272856426
H        10.62512322280619    3.03146993865180    4.15028787703349

