80
CSD_code = DECSIO | q = 0 | S = 0 | Stoichiometry = C32H42Cl2OP2Pd | MND = 4
Pd        4.92013974297606    4.34578767296792   11.65356725472835
Cl        4.27456279779648    5.78461480392000   13.24996838117040
Cl        2.95687238471634    4.55479478966134   10.65307336782085
P         5.86901828483376    3.20696321516887    9.91441535605247
P         6.74367910099794    2.44881964427944   12.43603801294045
O         6.77889563601844    3.88082177117401   12.84094651270315
C         7.07584388551100    2.28953794757683   10.65413721662797
C         8.30133088438109    1.63985412511111   10.09875215596575
C         6.33944469854691    3.44877849627004    8.17786952113561
C         6.03244480707079    2.47235477081388    7.21843087263453
C         6.70428845728510    2.51973703683194    6.00232108190690
C         7.60949654452343    3.52047194479238    5.69576156297487
C         7.75349992139666    4.56072306442616    6.60560914710042
C         7.12075220652960    4.57412784230688    7.83787767684051
C         4.98075018806823    1.38370180853295    7.43444136502837
C         5.63438960654330    0.16695353350096    8.10123148987939
C         3.81427594601301    1.88622231850846    8.29595179389936
C         4.37827518125557    0.92944232241126    6.09380306784362
C         8.39771624913830    3.55175454829099    4.39623164343154
C         8.15188198786682    2.31647120554081    3.52539463687092
C         7.98954101150601    4.79429246619371    3.59257566585490
C         9.89642116605361    3.61196664357286    4.72446518705651
C         7.26096849790749    5.80280418311718    8.74457358876606
C         7.85294800950771    7.00181789260235    7.98386872734626
C         5.88149889976971    6.24941398088100    9.28602163721231
C         8.22919742243093    5.50480322925606    9.90211217725077
C         7.96979958359254    1.48266101315073   13.34557234870705
C         8.00099193723317    0.09636033281571   13.27196019543819
C         8.96829150844357   -0.60179627730713   13.97018378513840
C         9.89914040058726    0.08172089925174   14.73804934581308
C         9.86316565704886    1.46451753454096   14.81472636393387
C         8.89647197019870    2.16759408125791   14.11823597338935
C         5.08406257295373    1.73249237991237   12.72148718954905
C         4.25631690741520    2.39683029686478   13.63414087037302
C         2.93293199027101    2.00845103203462   13.76716886521058
C         2.43983043264036    0.95591564415838   13.00903816430812
C         3.27146410058087    0.27078799482158   12.13911293955102
C         4.59246493855742    0.65894428278513   11.98856207520891
H         8.38314660034818    1.84366476562590    9.03171341609483
H         9.19079955218128    2.02541585669668   10.60086138823060
H         8.28778888647213    0.55888713998731   10.25129384421885
H         6.51838690892524    1.74934071122981    5.27847729996624
H         8.39082827968270    5.38257864340150    6.33486693287510
H         6.45353719891698   -0.20933597092432    7.49141697022911
H         6.02861337367290    0.43777807186195    9.07686368327862
H         4.90204849908295   -0.62756685634897    8.22733591632829
H         4.03787496947869    1.85671339172059    9.36503771698556
H         2.94136982613781    1.25340463012012    8.15077743682894
H         3.53649402849219    2.90641839585942    8.03714426307524
H         5.08490416174179    0.35499468561912    5.50061455867968
H         3.52312489941057    0.28447254592317    6.28205273878152
H         4.03844154912573    1.78485783255330    5.51538635820418
H         8.41476329310335    1.40406911655450    4.05618344025767
H         7.11371505452041    2.26029985060316    3.20664940513209
H         8.77118109867475    2.37494167692472    2.63285498024141
H         6.92045742590862    4.77775005920752    3.39194186829638
H         8.51901770050399    4.81483639208734    2.64265626508916
H         8.22104795117201    5.70948007090023    4.13003747385045
H        10.47952604902067    3.62152224228507    3.80636031325009
H        10.14518084435391    4.50393445871832    5.29234725213522
H        10.18913499280501    2.74221804280105    5.30936559089278
H         8.89654525177904    6.83980155782897    7.72241497690303
H         7.28287927340773    7.21801706513489    7.08308418705246
H         7.81445732294039    7.87754442250718    8.62803040832216
H         5.07358117274576    5.58656531991255    8.96151851588402
H         5.63189365949372    7.24051852866709    8.91254218979967
H         5.88254302660876    6.31607238528330   10.39108620808724
H         8.52233430316553    6.43757831100525   10.37968162066400
H         7.77241889338362    4.87731708552139   10.66617816450640
H         9.12676151406144    5.00943400742616    9.53438320527238
H         7.26542693829963   -0.42734163966614   12.67826930225310
H         8.99768743687217   -1.68030980987660   13.91961902904066
H        10.65267685337641   -0.46836711459032   15.28189399946716
H        10.58628533950727    1.99286564254054   15.41798832956257
H         8.83910981742557    3.24571432409318   14.16519398015289
H         4.66420879116987    3.19558387764522   14.25217004571820
H         2.28703602520503    2.53595309034586   14.45283210548114
H         1.40299323195695    0.66907239291350   13.09812974952397
H         2.88781562516330   -0.55597460154148   11.55960729540233
H         5.23599686155646    0.13916892955704   11.29086035627767

