85
CSD_code = DECTIR | q = 0 | S = 0 | Stoichiometry = C39H41AuN4 | MND = 4
C         5.84974198865596   -0.48371666446721    5.27516346802372
C         6.96977575816043   -0.56032884918190    4.43693914538448
H         6.90127075796072   -0.43235532011002    3.36692263712300
C         8.34709474985979   -0.96334581822670    6.21719705823995
H         9.35896538804545   -1.15137127780489    6.54388980449093
C         7.27023181536610   -0.89824142921297    7.11157472066702
C         4.45403119782040   -0.23653781200615    4.95196864622996
C         3.53940341054911   -0.24038465582820    6.03650102468190
C         2.21159140078354    0.00974498502169    5.74613090014840
H         1.51196665040708    0.01441587228512    6.56954169693930
C         1.74216841662519    0.26080716861385    4.45490369790327
C         2.66609976160279    0.24940171478146    3.41572066205424
H         2.35655286972693    0.43565178444431    2.40015372113622
C         4.00424426463778    0.00395206780781    3.65746531226726
H         4.70255922588027    0.00574361487240    2.83255153642800
C         0.26269311848507    0.53418862265138    4.24640225427672
C        -0.13865650650244    1.76386612601882    5.07410410548763
H        -1.19419622494808    1.98340677046116    4.92798970114752
H         0.44019158088279    2.63142276121542    4.76330911707860
H         0.03122703166703    1.60477229829521    6.13527031720230
C        -0.53947805055178   -0.69037694241479    4.70985879710435
H        -1.60356339145069   -0.51655537587306    4.56454434372727
H        -0.37016535250222   -0.90211865376093    5.76200358492922
H        -0.25139100850182   -1.56869580500168    4.13532159414043
C        -0.08828922809108    0.80918094455662    2.78158584421367
H         0.14856125216769   -0.04665345101267    2.15335324176152
H         0.44116968012669    1.68333410998435    2.40924805987233
H        -1.15575829632331    1.00223678071113    2.69577236448414
C         7.24440589644504   -1.04517251061434    8.55734984380462
C         5.98062011748752   -0.91506157640252    9.18808425416405
C         5.94174194429217   -1.02130667662756   10.56520197563260
H         4.98441183307561   -0.89721336976937   11.05135211811996
C         7.07431890128779   -1.26731415201438   11.34508345484780
C         8.29450802708726   -1.40454052186209   10.69184441008843
H         9.19822395154533   -1.59738985887169   11.24679267437145
C         8.38333945419437   -1.29015737744599    9.31801382939053
H         9.34586021406177   -1.39084249737792    8.83676413631499
C         6.93226759380662   -1.35503288328146   12.85473650589592
C         5.87675806071484   -2.41257412546134   13.20961073417806
H         6.14340044674847   -3.37397227695031   12.77431227333187
H         4.89252068341681   -2.13082884431182   12.84665033393263
H         5.81559409665561   -2.52858724524838   14.28965699044196
C         6.48562345589819    0.01743044624798   13.37745207821459
H         6.36299325335364   -0.01457512262534   14.45811711730280
H         5.54188390358649    0.31656230469385   12.93094494255317
H         7.22901579257875    0.77406205115621   13.13433083941788
C         8.24132494174795   -1.73694164403130   13.55159932094861
H         9.01021521866480   -0.98634621787014   13.38385920966707
H         8.60230292946872   -2.70263298158474   13.20410825399917
H         8.07285329163414   -1.80644638687460   14.62442947846708
C         2.96817576839247   -0.46363574512022    9.09526369953820
C         1.18668114531183   -1.73837337889059   10.19572396059261
C         1.38745056966973   -2.79507995214061   11.08933426313085
C         0.46053317815356   -3.00654159597564   12.09807882799801
H         0.61138239058752   -3.81783722776912   12.79574915873803
C        -0.64341878510491   -2.18271225198267   12.22390298246187
H        -1.35536191908515   -2.35177803416635   13.01809372602330
C        -0.83577182982797   -1.14752874168628   11.32900679776974
H        -1.70450771397192   -0.51196739600301   11.42181361570713
C         0.06622090417800   -0.91317599073789   10.29976134162229
C         2.59248017957826   -3.68076970042428   10.95807144346433
H         2.49577661152638   -4.33850868665919   10.09196706353067
H         2.70376972660973   -4.30386597066387   11.84179369163114
H         3.49947793557015   -3.08997431295419   10.83163685129689
C        -0.17321018178819    0.18469245500017    9.31387405961826
H        -1.18462798582060    0.57251188043677    9.40475662378266
H        -0.02241231543139   -0.18326143136564    8.30022304181450
H         0.53612711954605    0.99423193500647    9.48281103408440
C         3.50085443185164    1.68446692335011    9.84320879456216
C         3.99281613368618    2.19878428071150   11.04395693663407
H         3.79834164274500    1.65675572872165   11.95750678894550
C         4.71843278673089    3.37124189722406   11.05635491415335
H         5.10713659069578    3.75113695022034   11.99057112023085
C         4.94935198089920    4.06455402484614    9.87780504576291
H         5.51844696648220    4.98256712894432    9.89007942466195
C         4.43108968223023    3.58272026741188    8.68846070812535
H         4.58719171677397    4.13043345963951    7.76913948277304
C         3.71109656357281    2.40293322435265    8.66329829565163
H         3.27438816808906    2.05097487855144    7.73894992531665
N         6.06992088911730   -0.66028654569433    6.57918625711765
N         8.17743545903981   -0.79601957439550    4.91794688538184
N         2.13497371424478   -1.54038613222185    9.16071399802525
N         2.77178645069665    0.51745280182259    9.87676984025165
Au        4.49613910767750   -0.56440172553189    7.82122394190180
H         2.46820664906425   -2.38861554153126    8.72768332547075

