83
CSD_code = DECWIU | q = 0 | S = 0 | Stoichiometry = C31H45ClN2NiP2Si | MND = 4
Ni        1.97785043562130    1.19590888574557    4.01160433472968
Cl        0.19962279660601    0.02557008837763    4.26788802495757
P         3.02010671364544   -0.35193827217292    2.88835938614689
P         1.14322053130975    3.12456648639815    4.58998239146297
Si        3.91636785765132    2.16900559351913    4.01920166174050
N         4.62321745407457    1.72883381322448    2.43985735711574
N         3.70883797849885    3.90777834677525    4.28417627599556
C         5.26737118108577    1.68141161778169    5.32812327061673
H         4.92806458232661    0.92171322619289    6.02467108156228
H         5.56307899629119    2.55142637177794    5.90500408242491
H         6.14473840128998    1.29565413349078    4.81834856995488
C         4.52192345712171    0.36148139318662    2.16982133169895
C         5.52356583451226   -0.03057254670390    1.31925728066810
C         6.27187374840807    1.14951195955445    1.00880115229664
C         5.66632247981619    2.22053708210810    1.70554118280597
C         6.09727202560865    3.52883609274775    1.52615214028389
H         5.58778649597868    4.35087312896115    2.00215046298719
C         7.17888478315415    3.74131851192300    0.69896786891812
H         7.53708060772890    4.74845948331270    0.54443395897956
C         7.81531193090941    2.68372119721839    0.04341437063244
H         8.66164953502758    2.89453711424962   -0.59399557776600
C         7.36604847079420    1.39002002441602    0.17774710594140
H         7.83940098826972    0.57829670418021   -0.35470812730887
C         5.89051010582308   -1.37836789092357    0.79768148145578
H         5.15767873511263   -2.13242549749936    1.06237615675901
H         6.85812638151486   -1.67676397424841    1.20413605004597
H         5.98514085388025   -1.34840538337297   -0.28786029376260
C         2.44569439675337    4.38107714212256    4.60896507368985
C         2.51252835035240    5.69198436306969    5.00500187280863
C         3.89307623732445    6.05856684913840    4.94388376634583
C         4.60427730275000    4.91140291352044    4.51858509797702
C         5.99137242008107    4.92029038008802    4.43098234373042
H         6.53750541897869    4.03731161130682    4.13924247978759
C         6.64777724709081    6.09377863782365    4.73528327765648
H         7.72561201688633    6.12787701567853    4.67478045897470
C         5.95160492338529    7.24066781076105    5.12588131159788
H         6.50613286056239    8.14010636841471    5.35032925680466
C         4.58034850839648    7.23539544468882    5.24007388763203
H         4.04398076195331    8.11737663863751    5.55736405398765
C         1.42193264611220    6.61341860568424    5.43219538192916
H         0.45773902426729    6.11412980840921    5.43479722182642
H         1.36811477436241    7.47040019946011    4.75972737517253
H         1.62457697212621    6.99263557933624    6.43423421441651
C         3.47186477025135   -2.04083147242090    3.50561395438218
H         4.03798339592980   -2.55766648577803    2.72427141914964
C         4.36144059571279   -1.84591691694394    4.72934073806710
H         5.24844560284644   -1.26884601184223    4.47011840322531
H         3.80854245505398   -1.31085721169072    5.50182712494125
H         4.67630594425592   -2.80607713939758    5.13446826300172
C         2.21634791589811   -2.83370012484808    3.85118749695414
H         1.65517302115841   -3.09366641257624    2.95627044305999
H         2.48464702846076   -3.75467358204642    4.36653333017722
H         1.56583672930186   -2.24989018600758    4.50027360783518
C         1.90647256821203   -0.59431302381015    1.41244326084319
H         0.99187294519057   -1.03835657967426    1.82570193481941
C         1.58046281405863    0.81107398882856    0.90770665349018
H         1.24625725737110    1.43168926462381    1.75332654685631
H         2.46118411944988    1.27696141843899    0.46595783208303
H         0.78647779386491    0.78567363952025    0.16333331313597
C         2.45591419525810   -1.47064128994441    0.29783743278338
H         2.69436812198197   -2.47043511740325    0.65385622091605
H         1.70800509660205   -1.56400122465361   -0.48866781428490
H         3.34744005136475   -1.02325238739941   -0.13417171703123
C         0.67432393670073    3.12140648847962    6.39283585269932
H         0.69601483459381    4.15758369951284    6.75031074094760
C         1.77431248005474    2.31551413407477    7.08271655501167
H         2.73954920490417    2.81153673842599    6.98128576579151
H         1.55905689090516    2.18432571182058    8.14163821816577
H         1.83815810266534    1.32242411716711    6.61863747653386
C        -0.69414080011971    2.50442109132897    6.65146358536881
H        -1.49037923841523    3.12330706958015    6.24350794833666
H        -0.74880735306691    1.51296582299727    6.20495848326566
H        -0.85779735636064    2.40687542594177    7.72386039929192
C        -0.25829662195460    3.93435002936721    3.65765262763470
H        -0.73274146302173    4.65253736352013    4.33728538848063
C        -1.28971756575310    2.89889298229465    3.22019699107897
H        -1.66605542435875    2.32475886764410    4.06185153894432
H        -2.12842243579221    3.39128773510696    2.72982469490319
H        -0.84568494426683    2.19584882319314    2.51848001749365
C         0.30687962727704    4.66565114198741    2.44221283019946
H         0.95877409710837    5.48331957577915    2.73941991786419
H         0.88188019517087    3.97828473654319    1.82196541533684
H        -0.50467581162400    5.07062824099565    1.83980705351122

