43
CSD_code = DECXAL | q = 0 | S = 0 | Stoichiometry = C14H16N10NiS2 | MND = 6
Ni        6.68515328498508    3.10013627804683    6.88676985951009
S         3.04185166030897    0.68237049778069    6.37525435865012
N         5.39246271447070    1.82680403738351    7.27013042580055
C         4.38159709357475    1.36797811538071    6.87429699707765
N         5.10970289226450    4.53666953832451    5.97045004558124
N         5.58534005137223    5.72517369441002    5.60450405128098
H         6.58686260385539    5.87533947974596    5.64176112835762
N         6.91769620791354    2.33171554262991    5.13998266810489
N         5.89557648971168    2.05704716017587    4.33330682443495
H         4.94326264582777    2.20337652861274    4.64309611366827
C         8.01728136103151    1.99355290969357    4.48790419897635
H         8.98762092984676    2.12641263392020    4.92453067140969
C         6.31492496413802    1.53802857254224    3.17023285772274
H         5.63250423696626    1.24996608116027    2.39669267983592
C         3.79506691262247    4.61665550809133    5.84025715047712
H         3.16175372591079    3.78259425683011    6.07420160035939
C         7.68900431543296    1.48311703673023    3.22903968925649
H         8.36256775878117    1.12781629923882    2.47768932988915
C         3.42130109193504    5.88507028481007    5.38291088199108
H         2.43187548433428    6.24111873020944    5.18493313873856
C         4.60729393395619    6.57040863930907    5.24447271065294
H         4.80698547216003    7.57219508580751    4.92238127270491
S        10.33098313860262    5.51409743426265    7.39700330908734
N         7.97779356016729    4.37372958232610    6.50359814982145
C         8.98995648855738    4.83045018976323    6.89869902889928
N         8.26110653941945    1.66344707662016    7.80193342040607
N         7.78634163809826    0.47418101337656    8.16659342207333
H         6.78482052046510    0.32378454096775    8.13089792310805
N         6.45249482626277    3.86860343337891    8.63331577090153
N         7.47447922026063    4.14174941718600    9.44065838163568
H         8.42674860445415    3.99372409366849    9.13156722705780
C         5.35297331297051    4.20844115046924    9.28460329622447
H         4.38274336310319    4.07702887855152    8.84729400025535
C         7.05511377110328    4.66140273469861   10.60345554836054
H         7.73741012523778    4.94844025691700   11.37748707199941
C         9.57598847712941    1.58342371890516    7.92950917160496
H        10.20875866115727    2.41801596360445    7.69600211902346
C         5.68116257596147    4.71844556371647   10.54367045079834
H         5.00762341665713    5.07479103535652   11.29454987267141
C         9.95085128402116    0.31411424391447    8.38347441847180
H        10.94073991994538   -0.04216320253389    8.57872854575894
C         8.76521888558535   -0.37160940872301    8.52305815768043
H         8.56630583944905   -1.37404462725525    8.84360205967325

