71
CSD_code = DECZIV | q = 0 | S = 0 | Stoichiometry = C26H40O2P2Pt | MND = 4
Pt       -0.11044957212089    6.57562034197810    3.48625946567110
P         1.54983304917637    5.29665991626238    4.51221556020673
O         1.88877033325386    3.68950548907685    4.33397183537676
C         0.47871806122475    8.54268978604695    3.88179072311513
C         1.30372799190539    5.23683618866404    6.35445407303168
C        -0.20779354296599    5.12775342013995    6.54746242417020
C         1.82131476016923    6.48242649788908    7.06123075159582
C         3.24417375405258    6.05043992086814    4.27709149839018
C         3.41260795135540    6.35246962634870    2.78984700298506
C         4.38796933526151    5.21469314387117    4.83289264002731
C         1.65345026179792    2.98909670099837    3.17831385286094
C         2.65953305272105    2.83115536244345    2.23310702383291
C         2.42778459530563    2.12069320660766    1.06997621415320
C         1.18021608504058    1.56887308997621    0.83142181142020
C         0.18284564699051    1.69842319879359    1.77956054850011
C         0.40941299121374    2.39103652826468    2.96458493813107
H         1.41524702228869    8.85709310367394    3.42659786792775
H         0.39519753123958    8.83321169776119    4.92848219622361
H         1.79777345419607    4.34034039025746    6.74374139395981
H        -0.47816185689392    5.16406644277086    7.60186102145399
H        -0.58491753441704    4.19977391182907    6.12529933498347
H        -0.69418855054264    5.96386462915467    6.03106598119095
H         2.90676943762336    6.53595079662449    7.05314041985176
H         1.49228058841513    6.48119782666742    8.09994611684365
H         1.42302631958847    7.37441413713403    6.58102748813593
H         3.19802940533466    7.00787542722040    4.80568945401406
H         4.28602067975395    6.97921437435795    2.61444033377144
H         3.52268623323042    5.43881862211042    2.21046409728908
H         2.52674260215223    6.87693744972560    2.42307888027354
H         4.43810546925801    4.24882180435710    4.33600853240847
H         5.33739575305728    5.72744218211070    4.68124108321079
H         4.25936552184933    5.03426650220820    5.89785052767621
H         3.63158179158054    3.25984304958760    2.42264971009328
H         3.22118388592261    2.00606670939367    0.34685733279419
H         0.98992202007816    1.02923990126928   -0.08377641781564
H        -0.78667681977118    1.25120832944004    1.61754745404127
P        -1.77095240375632    5.29664723938243    2.46064968805950
O        -2.11016618965824    3.68958844108618    2.63911784897477
C        -0.70028598002581    8.54273473787224    3.09183661717710
C        -1.52460631258899    5.23652679179714    0.61843077368640
C        -0.01301983642234    5.12804268836135    0.42554321116922
C        -2.04264889706374    6.48170034642892   -0.08873976395656
C        -3.46520017846569    6.05067186740198    2.69574445608015
C        -3.63323272527216    6.35324511493772    4.18292186629373
C        -4.60916704853985    5.21470009297550    2.14063965979977
C        -1.87476733950022    2.98914072431395    3.79471722847491
C        -2.88074612841176    2.83127349657789    4.74004371991777
C        -2.64898994802000    2.12051475974270    5.90299061292071
C        -1.40151554604619    1.56835266569260    6.14125007906552
C        -0.40419736804481    1.69800810709864    5.19307208485175
C        -0.63076952889956    2.39093843726748    4.00823353752548
H        -1.63691993033076    8.85639202478183    3.54734088909870
H        -0.61700107379764    8.83407990346016    2.04536981778509
H        -2.01821908758085    4.33972591847150    0.22930566222765
H         0.25748697903239    5.16436546435642   -0.62882262843483
H         0.36442819342891    4.20025815748314    0.84783763382908
H         0.47298108567487    5.96439657617345    0.94193190530265
H        -3.12813908822755    6.53449423857676   -0.08111642072534
H        -1.71317218306291    6.48057652865548   -1.12731709346900
H        -1.64514288246204    7.37399992905446    0.39153644430553
H        -3.41917184275287    7.00787072011033    2.16671261863105
H        -4.50686520672909    6.97968542591545    4.35831227758195
H        -3.74275206193872    5.43976299927633    4.76268375589092
H        -2.74749483916521    6.87821216453496    4.54924279640166
H        -4.65931301985693    4.24915064695665    2.63814228731189
H        -5.55848190319046    5.72766878168926    2.29224031918145
H        -4.48084955027009    5.03360158373194    1.07576036429222
H        -3.85271179476407    3.26026797559153    4.55076617861047
H        -3.44231590262370    2.00589855118665    6.62619097137509
H        -1.21124491676105    1.02839545969913    7.05626186924239
H         0.56526674776506    1.25059173347483    5.35487555972886

