97
CSD_code = DECZES | q = 0 | S = 0 | Stoichiometry = C48H42ClIrN2OP2 | MND = 6
Ir        5.46759577204134    3.24170983101927    0.55227218353402
H         5.96152351613606    4.64492182456982    0.92417709278936
P         3.26880685592949    3.97913403816757    0.29973047665389
Cl        4.93992998967117    2.87102051038236    2.81825332043092
P         7.61230561686347    2.38722186744189    0.83025621510565
N         4.87398952244287    1.34172197635719   -0.04379987248931
N         5.79414771910583    3.42531867228845   -1.53167774902894
O         7.63707986222358    7.72482076469109   -4.55196683833209
C         2.54073918055176    5.10970626838433    1.53624134463208
C         3.34243900528405    5.80950139955618    2.42866661512832
H         4.41163880761012    5.66067573559266    2.40788460900176
C         2.76984335178553    6.67649655481690    3.34310216720603
H         3.39733865022454    7.21348238774461    4.03901935434772
C         1.39708853417557    6.85342215113211    3.36867373655934
H         0.95046867522435    7.52711091778290    4.08528838642824
C         0.59374277353698    6.16192008738418    2.47552144876231
H        -0.47788982665680    6.29848984899562    2.49277981501947
C         1.16023092435491    5.29273919327772    1.56264933668213
H         0.53151028901016    4.75331237740150    0.86735132990932
C         2.99444551955476    4.90654256072881   -1.24486846178678
C         2.91845681781978    6.29544236000684   -1.23502582119910
H         2.90746236270442    6.82357509327579   -0.29199190253932
C         2.86301810982746    7.00066078512932   -2.42369542704352
H         2.80064500840343    8.07906760961978   -2.40423395766743
C         2.89680965407208    6.33089142615922   -3.63456852802787
H         2.86531949575889    6.88266433614251   -4.56232623050055
C         2.97564941106456    4.94822811493427   -3.65361471665221
H         3.00466273144221    4.42092286443412   -4.59622318874010
C         3.02634487776966    4.24029378097077   -2.46810493866938
H         3.10088944287449    3.16165073325995   -2.48812417888819
C         1.99424955757268    2.67282856072295    0.29478459037280
C         1.98124762691142    1.83081114743426    1.40478097145725
H         2.69824148864209    1.99084540477836    2.19822381822777
C         1.05827127579865    0.80637512474004    1.49322943118260
H         1.05832979257787    0.15662742975224    2.35604547160712
C         0.13767564776313    0.61192598450728    0.47682037454517
H        -0.57887171766770   -0.19400953790767    0.53893110779195
C         0.13084337298037    1.46113656353560   -0.61633109015290
H        -0.59692541349766    1.32483523077342   -1.40362053664632
C         1.05047406790773    2.49146375995730   -0.70949946483803
H         1.01633292334979    3.15727025620528   -1.55977910328915
C         4.96345303440041    1.23081993630403   -1.41146529443003
C         4.51611310397863   -0.04902506591217   -1.80350456883505
H         4.47286573420824   -0.41950294388818   -2.81065130485713
C         4.16149147633531   -0.70070995597956   -0.64216290858442
H         3.77789462385509   -1.69827616186637   -0.54303281772513
C         4.39831103488156    0.19644776743989    0.41217917101740
H         4.23646537554438    0.02891973165873    1.46040425264666
C         5.44090131382995    2.31760041821400   -2.13772959933455
H         5.48125424871474    2.24020817631914   -3.22090762238105
C         6.27738950307501    4.50068458778980   -2.27334937397471
C         6.88657338520791    4.33908186116315   -3.52364934457300
H         7.04585467826086    3.35344539830160   -3.93257010122380
C         7.32715724426343    5.42426641028610   -4.24479800210224
H         7.79954981451581    5.28998202580922   -5.20527488430052
C         7.17788830784818    6.71992447692748   -3.75215674066114
C         6.59263848460387    6.89174973005658   -2.50332399372885
H         6.46622781738190    7.87422965605143   -2.07727301189848
C         6.15910074212566    5.79842622445994   -1.78083685559648
H         5.70970139349982    5.94946016622522   -0.81385367927558
C         7.50337675213379    9.04958383970054   -4.09901379476418
H         6.45350138783440    9.31428527078687   -3.93638109356073
H         7.91428241103022    9.67538067785541   -4.88977863847318
H         8.06664638843901    9.21757300620162   -3.17530284882460
C         7.79869374908707    0.62612217179481    1.28055630821710
C         8.75528840708961   -0.21849358483049    0.72723321116275
H         9.42687517422687    0.13658690375977   -0.04143816855158
C         8.85549288655017   -1.52864294817327    1.16064624608475
H         9.59683621286030   -2.18016744571245    0.72008531613135
C         8.01573568602438   -2.00472093307934    2.15321840952889
H         8.09553332644820   -3.03076856169408    2.48174712810868
C         7.08332474678444   -1.15813133058469    2.72888522804341
H         6.43700853852674   -1.51879163856118    3.51562279075734
C         6.97722747494287    0.15175165803816    2.29952266996177
H         6.25981384326341    0.81929366180552    2.75587824565802
C         8.74379498538087    3.07834101367856    2.08812780128807
C         8.27722732582729    3.93229431170563    3.07777764476914
H         7.23613781008997    4.21730903495060    3.08490785763120
C         9.14294232803560    4.40330612080492    4.05063054873138
H         8.77496412461825    5.06585411922684    4.81994940683697
C        10.47386815767289    4.02423403366913    4.04084480863399
H        11.14885015888365    4.39204035128402    4.79983775795036
C        10.94200852849644    3.16635921414741    3.05714031214547
H        11.97984089743213    2.86573310200518    3.04986816050850
C        10.08174099041539    2.69012374711155    2.08724270852517
H        10.44733617275383    2.01830062988237    1.32280433332275
C         8.57981615642573    2.57942571336711   -0.69696140790026
C         9.34137870931307    3.72874777544232   -0.88414212112257
H         9.39661346598132    4.46185413031541   -0.09160634188251
C        10.01972662300215    3.92974270536938   -2.07180139378839
H        10.61248800190218    4.82195039089435   -2.20857344543436
C         9.93776611232412    2.99068375033020   -3.08640961793031
H        10.47489293817011    3.14373853413096   -4.01061886849632
C         9.14967880499208    1.86312185379287   -2.92103605325130
H         9.06751138719483    1.13817069344990   -3.71880095360881
C         8.46058273764113    1.66330391136068   -1.73854021753156
H         7.82396400849183    0.79609568090323   -1.62219643988853

