33
CSD_code = DEDBIY | q = 0 | S = 0 | Stoichiometry = C13H14CoO4P | MND = 5
Co        1.41464659068928    8.25472019543414    2.78642982217345
P         1.05818784043263    9.42847661405683    4.68695498977750
O         3.31891787116952   10.27867004149138    1.80744725821420
C         2.56952597583854    9.49805558182211    2.18200574614240
O        -1.41967314403958    8.27680473215262    2.01059999520959
C        -0.31418381442983    8.26215747399570    2.31509993726840
O         2.55883422496246    6.36190194894171    4.71425625214641
C         2.12951712011844    6.96717079174935    3.83705008980166
O         1.46669757496994    7.99575179289707    0.01491115334401
C         1.61784643052059    7.39053576165167    1.03772756414768
C         1.97541622081348    5.91667724168381    1.02258108974347
H         1.96621475639672    5.56299444803569   -0.00896483673659
H         1.26895630667248    5.34095341027059    1.61560095213726
H         2.96950416351960    5.77650961639229    1.44236884106567
C         0.32331200424778   11.08529276207583    4.42374509539815
H         0.21141490065059   11.61482397369226    5.36985528435800
H        -0.65184144747573   10.96741775827030    3.95198202369624
H         0.97144674972516   11.65221702431347    3.75539368468735
C         2.56733100264205    9.85129393027322    5.63581004796785
H         2.33356925748453   10.50115672524552    6.47820340111154
H         3.26490606911772   10.35710595368490    4.96790672129558
H         3.02897698336055    8.93371055035569    5.99951633876849
C        -0.03155612904298    8.74047098699638    5.97951349832696
C        -0.22870745621450    9.40255546019072    7.18820235039460
H         0.26882181723676   10.34114591685177    7.38736225471475
C        -1.06623380069939    8.86386692231691    8.14638439015174
H        -1.21282949742099    9.38251405169907    9.08261593344131
C        -1.71668623930878    7.66313003071870    7.90946293979995
H        -2.36954518154668    7.24586894658205    8.66145368577929
C        -1.52771733475447    7.00164225411676    6.70855653016534
H        -2.03336424052613    6.06656107739780    6.51857608922376
C        -0.68831581699316    7.53835138930018    5.74821454719628
H        -0.53778975812664    7.02399463535114    4.80787632908701

