47
CSD_code = DEDBAQ | q = 0 | S = 0 | Stoichiometry = C23H15CoF3O4P | MND = 5
Co        7.51255858832482   17.97002478368877    4.12193507280452
C         8.01762220720971   19.46478694767343    3.27851215468159
O         8.39779365222957   20.38502219620254    2.70875819114399
C         8.55427174696884   17.19162964289077    5.39238671698946
O         9.24080797218463   16.49833954959014    5.99640935882955
C         5.95101627504417   17.09175304278673    3.92082771657481
O         4.96727551766976   16.51580571095558    3.82326854192617
C         6.51925002655527   19.24655965051019    5.23454267777445
O         5.51324732308123   19.76426333625020    4.84728742408140
C         7.08941977652429   19.54993883985118    6.60341820390944
H         6.50600183230369   20.35126587971335    7.05782396863441
H         8.13262423250283   19.84758990323684    6.53232277254088
H         7.02832783248932   18.66200592355304    7.22962410821807
P         8.57151541007656   16.72512607842432    2.55949829296403
C         7.62147678564565   16.32564088597001    1.05692274700440
C         7.89291320782873   15.18389771051938    0.30544659808934
H         8.67156459337361   14.50282705074533    0.61822629603156
C         7.16835779660830   14.91924094202710   -0.84074660958959
H         7.35980673452846   14.03974078262962   -1.43521722085478
C         6.17779800209524   15.80791643844575   -1.22622012414025
F         5.47403761902564   15.55005366212010   -2.34171411931244
C         5.89314175140572   16.95065050236618   -0.49865112751561
H         5.11301897720710   17.61818814231219   -0.82864835559757
C         6.62141766132808   17.20313951831988    0.64856943637780
H         6.41048983768112   18.08417780295869    1.24096149654487
C         9.12137127528847   15.07000206262256    3.08646982541856
C        10.45621612174139   14.69008893506019    3.16632053833873
H        11.23590432237624   15.37315065897933    2.86252151430957
C        10.79281839901109   13.43125764573069    3.63114432802063
H        11.82246407023441   13.11703149360570    3.69901240369097
C         9.78370150049569   12.56723701737049    4.01690145977143
F        10.10999005962796   11.34260821433898    4.46561433167739
C         8.44637819857468   12.92553870052874    3.95401630042712
H         7.68740497036550   12.22710142545011    4.26918861656199
C         8.12294700511923   14.18483391143489    3.49278475561221
H         7.08721496211849   14.49373040106061    3.44200675934653
C        10.09405133144502   17.45959388339897    1.87769920980020
C        11.01086028095320   17.98453656690663    2.78844390265610
H        10.79787359360183   17.93047143218060    3.84811363649199
C        12.17883621573482   18.57550055490806    2.35065833986676
H        12.89923932739743   18.98329189192113    3.04212970908362
C        12.41166956273169   18.64955438670895    0.98693200808361
F        13.54428659728606   19.22573743848515    0.54932807506299
C        11.51096130088164   18.15110213432938    0.06249722897092
H        11.72322877057629   18.23630514982321   -0.99156546377902
C        10.34731603437537   17.55457488159711    0.51365130123986
H         9.63601074016786   17.16776628982710   -0.20071299876055

