84
CSD_code = DEDBOF | q = 1 | S = 0 | Stoichiometry = C38H41N2P2Ru(1+) | MND = 8
C        -1.61602804480902    1.40676062198086   -1.83352660537942
H        -2.31899841512083    0.57319571029579   -1.82314338392723
H        -1.42544130241039    1.67136231684489   -2.87555041559587
Ru        2.73908804746521    5.21511005678443    0.58172304074120
P         2.87421205722538    6.64395556595048   -1.17179394487776
P         4.80633083177987    4.53927757375422   -0.08428446671247
C         5.51674933061288    5.72910503303155   -1.32232624815495
H         6.04067981742376    6.48148044799510   -0.72488244041138
H         6.27016332362191    5.22741791694213   -1.93644270324067
C         4.43129030827001    6.38608079456931   -2.16982287816074
H         4.16516340428763    5.74342431724585   -3.01569702204539
H         4.77520496277976    7.34696034600685   -2.56440911869319
C         1.56166411972719    6.65774019758254   -2.43030814243533
C         1.03827229018180    2.79539013637697   -0.21438788756486
H         0.66256305079338    2.67710316115724    0.78389779922997
C         2.88501193162185    6.59932002285181    2.32597403807406
H         3.48655108574148    7.48078928645286    2.50320733063167
C         4.84935889274995    2.88977212781605   -0.85376755861346
C         1.84262148529295    9.22470500231634   -0.82729406234613
H         0.93079717846479    8.83850829283065   -1.26151286879499
N         1.89310798103084    3.71774213866660   -0.61847324542302
C         2.95647524538338    8.39933420324691   -0.70542277392218
C         6.17962874167821    4.47016906949462    1.10478657978518
C        -0.54087010330575    6.67675786969558   -4.23828719679200
H        -1.35675009107956    6.68474227289314   -4.94472435091938
C         1.74631871691024    7.18273592013588   -3.70529121719521
H         2.70316518169089    7.59628043684584   -3.98921525398177
C         3.16759286733617    5.28770833949774    2.79411784955775
H         4.06651710385228    4.98156178065038    3.31254741208873
C         4.18001197239460   10.21551777638783    0.29166956606396
H         5.08868371364433   10.60122741295962    0.72957172939974
C         4.33085997583978    1.87183761647026   -0.05194753932253
H         4.00323709379977    2.11911217122346    0.95239784746315
N         0.68679154861920    1.98132102730442   -1.22398782522826
C         3.07197640308483   11.03733251759090    0.15588622595605
H         3.11762309976150   12.06332730226624    0.48709221253584
C         4.12145857203487    8.90088673434635   -0.13003829109863
H         4.98124544697262    8.25576920419343   -0.01278635484422
C         1.01054803455164    5.31279100054193    2.01412763554708
H        -0.02632815020088    5.03322637860976    1.87277496980148
C        -0.73318660308345    6.16664798474513   -2.96425730230560
H        -1.70036509796362    5.78245716668668   -2.67546802300711
C         8.24722004717846    4.53613198622828    2.95511674075958
H         9.05043918556078    4.55877112291940    3.67537776697374
C         0.31549717872478    6.15867665058881   -2.06354600148525
H         0.18305424734132    5.77230114487486   -1.05850076464739
C         7.43387755339520    5.64730080509763    2.78989475552728
H         7.60310914372235    6.53510625398244    3.38075890200200
C         0.69482354383587    7.18668943726499   -4.60445341814192
H         0.83748574720110    7.59453381938603   -5.59368851851104
C        -0.30843623148989    0.93992615318297   -1.18456058294616
H         0.07865861134837    0.06523761632698   -1.71364313306839
H        -0.48185232529786    0.67074102395858   -0.14037042866965
C         8.02736114854585    3.39797159794774    2.19794776539635
H         8.66160646180161    2.53383769990552    2.32560803353970
C         5.26560495403194    2.59476538385905   -2.14510158079730
H         5.66400792916797    3.36490989646377   -2.78874945596625
C         2.02898328769474    4.48191837409582    2.57824219434017
H         1.88803327246243    3.48074720572802    2.96460015039154
C         6.40397464126869    5.61310018043904    1.87079545534435
H         5.75376789673388    6.47027683881388    1.74270512333862
C         6.99699475747166    3.35879216205975    1.27355036855786
H         6.83302936424010    2.46836670575227    0.68453639302521
C         4.24189996874604    0.57924860991004   -0.52726457239853
H         3.84850004653565   -0.20540223641976    0.10201915391206
C         2.09411938976764    3.48439883093375   -1.94577388844328
H         2.75167068535492    4.09342310987677   -2.53562436554776
C         1.90553421966474   10.53951620559646   -0.40080597650238
H         1.04035129423008   11.17716931779037   -0.50313443363724
C         1.34835058001256    2.41114507812820   -2.33095268021322
H         1.24941726277435    1.93266871610857   -3.28244500196739
C         1.53120923460611    6.61311447002322    1.87823558866237
H         0.97662611146717    7.49511599225510    1.58657298874004
C        -2.23418790776832    2.60397844688753   -1.11389842892178
H        -1.52378717490142    3.43517479843827   -1.11009433780163
H        -2.44487524604439    2.33495302839167   -0.07626553332408
C         4.66241928130319    0.29100699368901   -1.81752175604721
H         4.59447218639356   -0.71804406434992   -2.19442548026325
C        -3.52343271802727    3.05113253518568   -1.79153741761082
H        -3.95218078122610    3.90384675869101   -1.27141412047631
H        -4.25517027380853    2.24740640323375   -1.78843102962469
H        -3.33367416919748    3.33596241814510   -2.82412980320699
C         5.17270122470179    1.29652645379365   -2.61999209535554
H         5.50230036184104    1.07041082155781   -3.62286169079008

