78
CSD_code = DEDCUK | q = 0 | S = 0 | Stoichiometry = C33H42ClPZr | MND = 12
Zr        6.06686670856234    4.97697313329275    4.99989263949922
Cl        5.19509151874969    4.07133806653871    2.99980303084809
P         7.91639481691480    2.75674630189806    3.85172280805199
C         7.51674931268518    3.36702637431475    5.52846192836896
C         9.47533177338961    1.76472267635112    4.03505244953012
C         9.88489607069500    1.04525956181430    2.91536895965205
C        11.05003042579235    0.30497679781354    2.93679913329667
C        11.83450444390179    0.28229634122440    4.07946942510580
C        11.44437404328630    1.00466549365821    5.19298548789885
C        10.27449903770209    1.74431344495273    5.16948609016853
C         6.86487161392309    1.23823188131234    3.76918845994531
C         6.06724902638166    1.01604209697878    2.65361156216026
C         5.30914719785863   -0.13782916861495    2.55032772893118
C         5.35370712076478   -1.09024032154755    3.55330508273933
C         6.17442290103358   -0.89363078684542    4.65233018918390
C         6.93010691971392    0.25868382680818    4.75583027078185
C         8.29471389698166    6.05746851534569    4.35342601808728
C         7.77548044279305    6.78509045848853    5.46258541728182
C         6.58174960502242    7.44274366178849    5.04578265848264
C         6.33000938775755    7.05670888646661    3.69566581732269
C         7.39996543295896    6.22192454812537    3.26642330303852
C         9.69165496956192    5.51329771883969    4.25497192552407
C         8.52275745040254    7.02186080723157    6.74885975693147
C         6.02377226783573    8.66857432839371    5.71896985965239
C         5.23433756329039    7.55181492523586    2.78800521938170
C         7.64983971380344    5.78457725761970    1.85277137757691
C         3.63398973626103    4.67544191049664    5.53119399328726
C         4.34732176577301    3.59985616341770    6.12240864538395
C         5.14050410066943    4.13876748934732    7.17792148780988
C         4.90523916698021    5.54239099654087    7.23598652768337
C         3.97378359042915    5.87407411947361    6.21468559824547
C         2.52742168084536    4.56490093047668    4.52020630695204
C         4.15879324417323    2.15229969778764    5.76118120960235
C         5.85098804815968    3.38304418394974    8.26978836964619
C         5.32113410620651    6.37885454463771    8.41469712569024
C         3.15573621179578    7.12926648588908    6.07859096681679
H         7.21162614835825    2.51730424810524    6.15032486742757
H         8.42137503706552    3.82096616792420    5.95925624862213
H         9.26781571391327    1.06783664438423    2.02640130257393
H        11.35203633112354   -0.25450073710839    2.06281177008383
H        12.74742096681088   -0.29515976488771    4.10004404991345
H        12.05372438652131    0.99119468542377    6.08630842687992
H         9.98504560274579    2.30149149547664    6.04999344954187
H         6.03375354752318    1.75884457171913    1.87029730758842
H         4.68467294243080   -0.29520544813936    1.68259139577335
H         4.76127557736496   -1.99047130951076    3.47534808808308
H         6.23019679518660   -1.64632344864100    5.42659841245316
H         7.59015101341584    0.38732542991308    5.60407640056556
H         9.73112419109113    4.57778675172463    3.69465358398636
H        10.12633959935720    5.34673191103277    5.23873397978376
H        10.32343160946257    6.23357707328053    3.72926423044851
H         7.99198630302840    7.72924928852113    7.38175008449399
H         9.50852582234274    7.44213612560207    6.53976557931800
H         8.67197419507339    6.09454795780337    7.31135246578524
H         5.86738255430658    8.53002377781871    6.78560295413250
H         5.08889417086946    8.98591317410122    5.26574729980560
H         6.73805403839925    9.48814517108163    5.59827520287157
H         4.69080824646641    6.71409441827588    2.34041438865071
H         5.65844330075140    8.14359985036483    1.97391508540863
H         4.52574140129894    8.18340482350173    3.32207113024557
H         8.23996255450721    4.86944246386458    1.82681739812465
H         8.20223137614116    6.55984745953251    1.31638180392248
H         6.71548850354828    5.60602472290908    1.32537675020564
H         2.58038450970785    5.36713972646396    3.78221056118801
H         1.55790283600353    4.63345274270749    5.02165308486972
H         2.57255756883417    3.61403685045577    3.99432640605640
H         4.86303112686654    1.51159954210053    6.28818660817643
H         4.29400036027133    1.99351874773436    4.68883658090198
H         3.14968968824034    1.82742685990324    6.02352040467089
H         5.89457471380131    2.31741375074321    8.05482294553791
H         5.30724685180557    3.50445495531884    9.21041768373440
H         6.86698978570993    3.75139968221446    8.42894453335885
H         4.94190310456189    7.39506266790712    8.34061449689966
H         6.40459565677427    6.41440325329899    8.53424903473632
H         4.90830443823436    5.94575270014927    9.32924057483567
H         3.51151781955500    7.92038829835348    6.73259238300741
H         2.12168625925882    6.91123990114589    6.35761488558585
H         3.13989803812102    7.49694946785334    5.05163932907965

