59
CSD_code = DEDCUL | q = 0 | S = 0 | Stoichiometry = C16H36N6Ti | MND = 5
Ti        1.75122894723687    9.43165949349669   16.64843683949432
N         1.44119133523404    7.62262535292875   15.84105968945432
C         0.50717826748335    9.27300095760442   19.33343989772412
H        -0.31894888899313    9.86066192674591   19.77557533039347
H         1.45257167625627    9.73652234535232   19.62434487713530
H         0.45515797605541    8.25906293287512   19.76038209795826
C         1.04853058178145    7.52074552746414   14.54164584617347
N         1.34860762149947    9.90649333919720   14.37704124825038
N         1.86674999011877   11.32065089826859   16.83207613800751
N         3.49311005883097    9.09847332465077   17.25546472297982
N         1.00973088881688    5.85842507116771   18.57143162874412
C         1.72430735113056    6.35955807210731   16.26178683480493
C         2.14400087604188    6.08352331299793   17.66941548688741
H         2.82389588248269    5.20913643642057   17.68295820729568
H         2.66942846394554    6.96627736414547   18.05458086922115
N         0.40102632465705    9.23591087301186   17.89905373382767
C         2.68165725397430    9.87685653347065   13.77819553063667
H         2.62757171391630   10.05623756340477   12.69104480259754
H         3.13225376953296    8.89509653346988   13.94078284080605
H         3.31341811292164   10.64303838480946   14.23023934895072
C         0.68362095185904   11.15063308649926   14.00710431567112
H         0.52087411359931   11.20307931188152   12.91792437205666
H         1.29393478289906   12.00151399158603   14.30417124133012
H        -0.28207393027520   11.21939353336958   14.51132579734622
C         4.07367560873439    9.64430207533720   18.45823573634588
H         5.02831335305651   10.15957323849165   18.24509110555775
H         4.29645943881057    8.85490830090375   19.20101656974364
H         3.38697617269298   10.36657427878556   18.90568414844231
C         0.57771148815693    8.76713186803165   13.86174210443395
H        -0.48679273732395    8.94188881257444   14.08652357179908
H         0.67335578978280    8.68448480808796   12.76386613454150
C         1.53180857034805    5.46342413541093   15.22648592877413
H         1.68797689164042    4.40052062606215   15.25647955106703
C         0.77696596769449   12.17047523179683   17.24338015601277
H         1.00129135529548   12.67614644441624   18.20139770916459
H        -0.13442465818668   11.58162718610830   17.37027088860580
H         0.57747084568994   12.97454599108147   16.50663413182604
C         0.19338611018157    4.73756357944829   18.15441240651646
H        -0.67097883944407    4.65930520079677   18.81448906229981
H         0.74236366088917    3.78152641736086   18.18297771636345
H        -0.15210730143218    4.90939631776619   17.13719906478332
C         3.03360857253055   12.13000133173657   16.59217513073851
H         3.31823584436546   12.70457072378576   17.49341424076277
H         2.86620823421790   12.88340204169570   15.79290082295844
H         3.88459415859588   11.50678863226308   16.30797689930029
C         1.48147299477606    5.66409208930316   19.92587260348146
H         0.62581135173259    5.57332296135275   20.59583059573828
H         2.07660970929614    6.52486570940601   20.23014813630413
H         2.10111633557223    4.75670796028889   20.03282705478096
C         1.09400299640524    6.20963073264805   14.11724647708100
H         0.84167728381941    5.83481855991867   13.14185033691591
C        -0.84857490012290    8.63800070545197   17.49813913786567
H        -1.70102371154897    9.15173248997969   17.98013085412178
H        -0.89105474949832    7.57492468890528   17.79066743344571
H        -0.97793995924839    8.70698394652656   16.41262401085517
C         4.48196238064407    8.33504271622005   16.53073049543562
H         5.00158136709939    7.62022328567978   17.19309660484705
H         5.26350453520504    8.99084634324301   16.09694697456635
H         4.02003171856929    7.75857440221790   15.72495450677368

