56
CSD_code = DEDCOG | q = 0 | S = 0 | Stoichiometry = C23H28ClN3Pd | MND = 4
C         4.63006811046075    9.36195655923792   -1.63285851337966
C         5.46210350804655   10.49028708956451   -1.83271488310507
C         6.32089081683017   10.59375053610995   -2.92716967856061
H         6.94087542182567   11.47197480192980   -3.04646457403685
C         6.36752685274199    9.56770214641896   -3.84841388151096
H         7.02706434928820    9.63095632471097   -4.70190347049118
C         5.56271668893430    8.45044770078201   -3.67309786885198
H         5.60357339658901    7.64708877155690   -4.39634446307126
C         4.70776237691805    8.34967095022805   -2.58383105086632
H         4.09838190343822    7.45802970797891   -2.48513626813156
C         5.33392079620176   11.49046903810641   -0.80894370885734
H         5.91303226269728   12.41559724487491   -0.82544151546026
C         4.25037630945327   12.11991549374785    1.19880886160448
C         3.41830222230951   13.22910085153046    0.98853701761540
C         3.15163507986985   14.04904735248257    2.07404169125575
H         2.50610389899564   14.90463980743708    1.95928317819713
C         3.69832168324027   13.78252644111366    3.31672901993739
H         3.48523638940785   14.44144727584074    4.14575963197632
C         4.49025869060082   12.66712680643650    3.51271725983314
H         4.88137435114014   12.46161651467930    4.49609271257544
C         4.76599414347159   11.80569923623133    2.46221573586130
C         2.78328532706850   13.43539533105552   -0.37267250197184
H         3.54513617495518   13.26012889075559   -1.14301235117722
C         1.65893420402621   12.40890830065020   -0.57510477580266
H         2.04814059263599   11.37100597017085   -0.57153180279741
H         1.16312582665082   12.58048258669752   -1.52896710250540
H         0.92716678039235   12.49609002194722    0.22542850384881
C         2.23912525109979   14.84759296814731   -0.58207951951774
H         1.37006253731972   15.02817255223537    0.04555227128892
H         1.93457573666105   14.97023210791882   -1.61956410363833
H         2.99922769891301   15.59310038601874   -0.35832883526475
C         5.59809271606032   10.55239194566366    2.63160859910020
H         5.26763901233254    9.81063255340031    1.86757357753013
C         7.07606006313463   10.86912451549329    2.38765636532864
H         7.23034667520764   11.25586199965939    1.38189513679611
H         7.67960869459581    9.97159781153588    2.50569658430108
H         7.42133668301902   11.61576604284288    3.10076651190183
C         5.39809561949098    9.89945465743920    3.99778665032993
H         5.82720617879839   10.50071811596731    4.79581519474817
H         5.88284362746155    8.92497210902386    4.01352883788507
H         4.33538906275125    9.76368413082552    4.18278743955768
C         2.42650760065129    6.95708084201488    0.82617994720746
H         3.04881654208587    6.92963150858922    1.70250171976742
C         0.84924298633250    6.46405193467831   -0.59181909146058
H         0.01166576031309    5.94227174185983   -1.00648316022959
C         1.54600981436405    7.54845672550157   -1.04049360203610
H         1.40771457711031    8.13044615284991   -1.93428006152867
C         1.00329054081933    5.01042099953878    1.43108819945261
H         1.20195149400630    4.05312574305161    0.94355825184032
H        -0.06485089849038    5.08339780727169    1.63979726462909
H         1.55011784953244    5.05272490714281    2.37085802490185
Cl        2.25629658943422    9.79743354791167    2.00726999404257
N         4.50954863923547   11.23617375660626    0.14152520681633
N         2.52800718534872    7.83604778298564   -0.14490974230640
N         1.41763012586843    6.09912861206564    0.59311910909585
Pd        3.52103347836789    9.55194428953658    0.03658802728114

