100
CSD_code = DEDCAS | q = 1 | S = 0 | Stoichiometry = C48H47N2P2Ru(1+) | MND = 8
Ru        7.77735049579286   -1.10580959232332    5.77625409519071
P         6.30351436123584    0.67234206186932    5.49481917258981
P         6.65245355953906   -2.81392342242326    4.69465608689170
N         5.25995248279604   -1.97537340974147    9.06989815161641
N         6.79492458075347   -1.73375494317386    7.51567838492693
C         3.49340375856151    0.54953076640912    5.78472115737229
H         3.65784020869644    0.71506014501305    6.84057177494674
C         5.16256893576072   -3.51183685132058    5.49727222080356
C         6.14396987122221   -2.57680760454602    2.96083892497976
C         6.78353800857345    1.41655616389309    8.14711550076894
H         7.50863505034228    0.61299334367572    8.13931275229712
C         9.86394925282517   -1.85092700711223    6.22103286847004
H        10.22063388916592   -2.75382058638836    6.69567467260447
C         4.56919853837252    0.53637506148289    4.89552263471423
C         9.77451085943664   -1.64871475325159    4.82114784604848
H         9.98254500381805   -2.39929082046532    4.06921361471691
C         1.95109346348917    0.18593961948872    3.98033395072634
H         0.94010374381929    0.05549189149645    3.62660162342877
C         7.71686823061345   -4.29074893603619    4.56299053655694
C         9.51377418419295   -0.27947852939649    4.58348764318778
H         9.56550541296247    0.22273894051167    3.62751965788840
C         4.30751288365103    0.33483430201135    3.54221494808804
H         5.11506618840961    0.31322526503584    2.82952995806097
C         6.98426758052882    1.91408815967755    4.33148767984860
C         9.48482811440803    0.37944276490549    5.85072196611939
H         9.44916580912001    1.45132346210526    5.99736566114337
C         3.97326255951598   -2.79132239691953    5.39342264452134
H         3.95031304500806   -1.90195082100252    4.78242061348364
C         6.60070578076945    2.17163594381182    9.29323143437360
H         7.17576016409644    1.95145123507027   10.18037858433560
C         2.19828268127068    0.38171721374356    5.32892062563213
H         1.37868646249866    0.40855425398405    6.03185108885562
C         4.94577482436628   -3.02214075973969    2.41435169422929
H         4.23156047178415   -3.55536918052378    3.02349695915029
C         6.41843726647879   -2.47440438128177    9.57598147013809
H         6.48679531695797   -2.89183972466763   10.55896726464004
C         5.18446603825394   -4.66523890116741    6.27437260495579
H         6.08604337957575   -5.25316185554143    6.35565110421884
C         7.81831071787469    2.39003085943374    2.11818815073703
H         8.04665442107892    2.05556602090984    1.11689621174315
C         3.01102189172779    0.16403207253982    3.08977222793092
H         2.83195221016197    0.01340280249968    2.03601803504475
C         9.70461195051229   -0.58635314324757    6.85131331408473
H         9.86417405795802   -0.38086641469555    7.90191079919504
C         6.04889833795169    1.68404616866577    6.99846195661934
C         4.67204484541784   -2.79261330395579    1.07641408215711
H         3.73814853726083   -3.13701620661340    0.65819586240285
C         7.29819819032748    1.49968232599572    3.03825617155931
H         7.15203024906519    0.46502679098956    2.76098105532963
C         4.01072106316012   -1.78702012099751    9.76067824525072
H         3.93739865155858   -2.52218665171808   10.56453427281721
H         3.19518071537412   -1.95823495881679    9.05267617022959
C         7.07339291035293   -1.93835060890462    2.14115933981458
H         8.02147597128400   -1.63302551041898    2.56716257791748
C         4.96589251929983    3.50190960472126    8.15025413721072
H         4.26451161917036    4.32270898759047    8.14575149971508
C         2.83279319324262   -3.21285927647773    6.05048272280473
H         1.91819789942745   -2.64719773054726    5.94900678185473
C         5.68501294489557    3.20962617220240    9.29966737230708
H         5.53710879200356    3.79648441366260   10.19315634805145
C         7.36519903645698   -2.32649026632116    8.60396750751628
H         8.40006473124925   -2.60629157777759    8.63856752515003
C         7.25100411603743    3.22950882224976    4.69781574979602
H         7.05609510851434    3.57124301639473    5.70338927659583
C         6.79965598287740   -1.71890588431884    0.80444994270634
H         7.52683343734354   -1.22617455627115    0.17598201975257
C         5.52988527759850   -1.53576105184818    7.83158276541883
H         4.79442943551753   -1.10784051995221    7.17783653199160
C         5.58892931779935   -2.13551145581360    0.27299017398459
H         5.36705186735559   -1.95853911436803   -0.76826244988034
C         4.04128814372860   -5.08187029702339    6.93551339663884
H         4.06915236480229   -5.98215115317984    7.53087366636958
C         5.14597166862603    2.74896884518414    7.00522765129874
H         4.58808706711888    2.98573913085943    6.10960947766671
C         7.91402477883665   -4.98596252520212    3.37589442658478
H         7.42640911459637   -4.66332457971252    2.46772227905845
C         2.86592530102287   -4.35774770744794    6.83093913931741
H         1.97746301343139   -4.68945570565621    7.34658278256684
C         2.58055796759628   -0.08731462515820   10.98776671384450
H         2.42259913855308   -0.79199209815540   11.80605621624032
H         1.78224537050886   -0.23960659606638   10.25852752932387
C         8.35087603245151   -4.72811604972024    5.72519884440880
H         8.18952503646472   -4.18357033046315    6.64802641728685
C         8.74043752320941   -6.09730018057883    3.35568241424720
H         8.89228397265017   -6.63095331797277    2.42967504586668
C         8.05685265706314    3.70488911542797    2.48347323834277
H         8.46658332120993    4.40121983113730    1.76819903191225
C         3.92828067439576   -0.36603555486469   10.32827394552833
H         4.72771773869624   -0.22437052108408   11.05865426932216
H         4.09298534807796    0.35028814657803    9.51898618269113
C         7.78242075784265    4.11573165578274    3.77618911340156
H         7.98429601848029    5.13355855962287    4.07444349780157
C         9.16903376783716   -5.84100594520235    5.70153404114129
H         9.65369805635983   -6.17647705560450    6.60680619968193
C         9.36849149612717   -6.52574039729572    4.51253121635646
H        10.01239070631694   -7.39140849908671    4.48986840603226
C         2.51619086700805    1.33762701384769   11.52298683044558
H         1.55056144121565    1.52625672534336   11.98327984332084
H         2.66062428121851    2.05498826901050   10.71794222330158
H         3.28898391599834    1.50052002472577   12.27025000964817

