34
CSD_code = DEDCOE | q = 0 | S = 0 | Stoichiometry = C13H18ClPZr | MND = 12
Zr        1.99152660888718    4.25343619192002    5.53338389960664
Cl        3.04341483677837    5.33491706414000    7.36017169830752
P         0.42889018726825    1.51646104786894    6.36027800049941
C         1.97302878246921    2.39793141955947    6.75533952881470
C         0.87099607392784    0.93624140551960    4.64399573025518
C         0.67111050719499   -0.13223742910608    7.19342709070732
C         2.80335178336513    3.73545296672428    3.19996803201535
C         3.58913788835676    2.96668588977401    4.09119155167059
C         4.37860689090837    3.85730713515610    4.85385413139491
C         4.08541999882359    5.17021983512606    4.43089990857497
C         3.11965098131629    5.09651683145726    3.40926836654125
C         0.14476291587417    5.25496602314271    4.11231329152521
C        -0.41664302360630    4.25911346672793    4.93928453422161
C        -0.32710444811426    4.70942887366056    6.28343819948574
C         0.28440654841786    5.97894227090782    6.27311489820407
C         0.59791643212254    6.30703819349568    4.93919482958219
H         1.89401599868875    2.72223963922762    7.80835904894358
H         2.83505395720763    1.71279297917383    6.67028548663492
H         0.93033838436519    1.79440617791290    3.96738056070507
H         0.09458594618543    0.26067239272051    4.28776988645337
H         1.82130045869106    0.40020925354233    4.65132447260208
H         0.57156223485174    0.00445981843174    8.26868883059835
H         1.65663932360258   -0.54322165530840    6.97383044586878
H        -0.09481784504730   -0.83059099626166    6.86335066543744
H         2.20308895025611    3.34469064442183    2.38604735259584
H         3.70131466534987    1.88987073935502    4.06934901604908
H         5.14221419530151    3.57807997853948    5.57055198213211
H         4.58281399780103    6.06913973852097    4.77338403844715
H         2.78762481326441    5.92532305803614    2.79533198883477
H         0.10311370266592    5.27089975481788    3.02946619545109
H        -0.98982237029567    3.40459989321308    4.60192194755454
H        -0.77577253881457    4.22602599865601    7.14335101427008
H         0.41863947800035    6.62392697649453    7.13213186584002
H         0.99073368393177    7.26015442243291    4.60225151017231

