53
CSD_code = DEDDAT | q = 0 | S = 0 | Stoichiometry = C21H25N3O3Pd | MND = 4
C         0.83930707897221    2.14987240436383    4.85954068872411
C         0.49460614393532    1.18520237419033    3.90031226031969
C        -0.17783866656263    0.05359995419742    4.33576291859348
H        -0.47616609926248   -0.70098669231808    3.62645836098317
C        -0.48158483059969   -0.12315499166294    5.67347887562700
H        -1.00501340558645   -1.01304135845875    5.98987134721258
C        -0.13251291782119    0.83537987033981    6.60567033611204
H        -0.38674713908228    0.68484216059338    7.64207446334014
C         0.52393546727617    1.99319435541408    6.21567652865958
C         0.80310925985251    1.43074150395030    2.43750863089859
H         1.77362296178379    1.93815634495001    2.36627428187639
C        -0.26320384946740    2.35675854358600    1.83533646800245
H        -1.25066760276180    1.91939658118271    1.96418723027681
H        -0.07477178474599    2.50166478793876    0.77324879406276
H        -0.25909554645517    3.34817189599753    2.32850739419280
C         0.89970687373914    0.14390133415980    1.61811875448307
H        -0.07784604988762   -0.31299707062198    1.48836799909473
H         1.56302211652534   -0.57214374457073    2.09829686438034
H         1.29615973851234    0.36997175796307    0.63050492408485
C         0.92439873687513    3.07161895118699    7.19862665099151
H         0.88606207387034    4.04773404243038    6.67866995171446
C        -0.00702279402409    3.15528188633343    8.40699288800718
H        -1.04748770477116    3.18076749450482    8.09463929129704
H         0.19981731872333    4.06820424550468    8.95996357793147
H         0.13925973858271    2.31157123105358    9.07817370605689
C         2.36500751831446    2.83599366045642    7.66553783817077
H         2.45143085248186    1.85749199917635    8.13504315268339
H         2.64980244683745    3.59487260439921    8.39053733137855
H         3.06289943189116    2.88118830438112    6.83199852302337
C         2.69493309665628    3.47800838667170    4.19268679807738
H         3.39338082034581    2.65245239209881    4.33427579044281
C         3.10796958469935    4.76590051080091    3.70745509429163
C         2.03333061001625    5.66962521762888    3.53199138542590
C         2.33297008412559    6.94093641386448    3.06240642753963
H         1.54619826647277    7.67110515298842    2.91289326517211
C         3.64470018477177    7.29938084823060    2.77622649881642
H         3.85723527898220    8.29435565098770    2.41121891519532
C         4.68646929772080    6.39935312371302    2.95108976984312
H         5.69964157836993    6.69552754680391    2.72278551682120
C         4.42369071262113    5.12738317883623    3.41830572245439
H         5.22383751098783    4.41513190309751    3.56291097398162
N        -0.87169482176972    6.34307880025512    3.57252858513489
C        -1.85483687494845    6.91908052436306    3.72369327293829
N         1.44241684575144    3.34859886910026    4.44389308355439
N        -2.00640743729331    4.39368575797806    5.64412926627979
C        -3.07114419255033    7.64560399446428    3.90194562014851
H        -3.74902924906905    7.04996042219554    4.51548905287795
H        -3.53578058412094    7.84322370374916    2.93634618298317
H        -2.86455644363033    8.58687648954554    4.41075526226744
O        -1.66794669779223    3.81203621194614    4.58537672610820
O        -3.08335642791750    4.16801918200656    6.14503035095069
O        -1.21710789230095    5.21179092622105    6.13508930826052
Pd        0.28219738274088    4.85703036186765    4.05209709824846

