88
CSD_code = DEDGEZ | q = 0 | S = 0 | Stoichiometry = C33H50HfN4 | MND = 5
C         7.05031058855077    4.48064775826432   22.41451669200129
C         8.84121678640793    3.55292406197338   21.41538381400645
H         9.39064886209674    3.06662829761193   20.63519872630436
C         9.23070589509470    3.96978779760284   22.64269586185312
H        10.18293304928238    3.91442711705275   23.12946147320072
C         6.73942245210884    3.56191939210334   20.11894947656490
H         6.64430432523178    2.47311874175292   20.02574659282001
H         7.27472986677756    3.93863675673348   19.23964085533839
C         5.33263002194109    4.20689779566908   20.16212155725606
H         4.84160559966998    3.90138740645102   19.22831489086603
H         4.78057353939784    3.77137528951200   21.00171745032543
C         8.14209355364794    5.06808001401891   24.57244590887192
H         9.04474840112063    5.67545715712398   24.69231305571218
H         8.17835967953705    4.24519287473534   25.29739790381443
C         6.89406605746254    5.94158709168492   24.83041128344435
H         6.02437843461292    5.26975652670963   24.86440964813825
H         7.02115264952340    6.38263236871114   25.82872131502250
C         5.65034797671798    6.37470019456604   19.16803991797096
C         6.81373729493643    7.17168550991237   19.09079504067333
C         7.06451490943871    7.93863983362341   17.96746754439039
H         7.96488693791742    8.53824778315841   17.92782070868506
C         6.20153923360166    7.94649236822123   16.87976611852013
C         5.05481801072786    7.17440690120215   16.96095629127187
H         4.35454576179631    7.18053948335950   16.13571226673372
C         4.75979499376936    6.40381419696350   18.07492289747670
C         7.82103688811159    7.16035259079954   20.21092122683640
H         7.32284981911716    7.19344650868467   21.19070140048312
H         8.48599434364159    8.01696984919230   20.11688464490753
H         8.43662498328612    6.25817283229357   20.15702210956051
C         3.45387430770873    5.65901852729338   18.09766304063623
H         2.68500202956812    6.24763166479230   17.60026949651229
H         3.13996681548471    5.46968817048781   19.12115840978229
H         3.53054778099991    4.70548620169490   17.57128722061131
C         6.49585906489473    8.78958713710086   15.67431190119306
H         5.89020088127566    8.47858882697734   14.82635885087153
H         7.54713895952989    8.71701304872076   15.39999922875132
H         6.27742586780405    9.83774894242770   15.88279597734971
C         6.93536066510948    8.26849703726782   24.30324990202242
C         8.08483521359217    9.01079220302639   23.99048038852163
C         8.23294745562107   10.30298785105335   24.47446857613630
H         9.12835670635004   10.85430287456029   24.21823924921960
C         7.27888437857398   10.89243043977533   25.28516464741652
C         6.14802285889178   10.15181226481919   25.60400034201436
H         5.38711390242622   10.59666958079135   26.23184837971393
C         5.96359351327030    8.86469575676091   25.13299783884284
C         9.19073527028294    8.42515210246328   23.15874749549807
H         9.32026062468127    8.99471037227105   22.23954954964267
H         8.96655000986555    7.39238488280335   22.90581190388842
H        10.13206014751898    8.46281875956794   23.70785969175194
C         4.70295053585632    8.12308846497937   25.46810829497451
H         4.84246371657579    7.48728842795355   26.34343145003848
H         4.41635390893257    7.49086477760510   24.62279985284273
H         3.89997722141479    8.82355152749304   25.68798351910100
C         7.44315711192693   12.29112571253596   25.80189144639716
H         6.71521564337118   12.95497013359048   25.33488414382024
H         8.43954638842506   12.66999934590908   25.58733333244343
H         7.28044134756475   12.32433471485661   26.87832420237343
C         4.98886910131972    8.56264905438255   21.70901446718151
H         5.52347274981232    9.23649980226092   22.39494480915925
H         5.37889594159777    8.77531101914960   20.70070701506756
C         3.51541613567923    8.98092358792578   21.70599445461804
H         3.06600806172778    8.76592175198180   22.68611941428834
C         3.37116405991196   10.48909043215428   21.46029749819395
H         3.80937666941254   10.75653836099698   20.50051065397888
H         3.88258105336090   11.05135217792949   22.23920043846876
H         2.32326821654020   10.78594263673648   21.45385530199078
C         2.75003918226011    8.21241265562841   20.62984964802899
H         3.13624412045371    8.46893449723029   19.64505503969876
H         1.68820084873931    8.45326153659878   20.65644810140757
H         2.87539800492544    7.14065912842784   20.77669621576504
C         3.51541802838384    5.57885916214827   22.98476498863712
H         2.84244140549747    6.41652062766675   23.23280885735532
H         3.03439777756566    5.07294480872393   22.12928474801149
C         3.43087792779144    4.59448003390996   24.16292816526273
H         3.90147852467811    5.03629033180524   25.05310336881871
C         1.96822350778841    4.30414825397114   24.53331958311629
H         1.45928838216351    5.21986856579612   24.82688519182995
H         1.90793367645530    3.59940588037042   25.36154147784297
H         1.44027672921430    3.87836532312848   23.68189734652654
C         4.13282778237754    3.27350586347224   23.84199474159412
H         3.60908262325928    2.76092180217777   23.03617074439200
H         4.13469283458397    2.61707772801930   24.71143578293288
H         5.16315269373433    3.44945249877048   23.53041644691826
N         7.51384102855641    3.87088470891204   21.29693489457181
N         8.12936958490895    4.52865073327626   23.23379087791768
N         5.40563870270217    5.63351132193105   20.32078414287819
N         6.76520905721025    6.96084573585072   23.81026096207422
Hf        5.47610234431449    6.44260572940799   22.23990961608088

