89
CSD_code = DEDGUP | q = 0 | S = 0 | Stoichiometry = C36H47HfN5 | MND = 6
C        -5.21323833878710    2.75431608846133   14.77434012506530
C        -7.21922803735178    2.95473508144922   13.78837332954749
H        -8.11664741941789    2.62881503500551   13.30311843516002
C        -6.80685103242834    4.19949327161527   14.13330619535770
H        -7.28065152602721    5.15126261892860   14.00488906519587
C        -6.24410254483557    0.66180199162822   14.00682553969466
H        -5.96807300836083    0.41946891234864   12.97490646117355
H        -7.25753136378923    0.29202305741553   14.19627874123047
C        -5.25953444126883   -0.01915110507245   14.96351982007890
H        -5.49150078558178    0.33622031721164   15.98988120537122
H        -5.47998277943799   -1.09799579857380   14.94973793272131
C        -4.78601557752061    5.12815728711877   15.27009398202815
H        -5.32541307053478    5.60375073215421   16.09803718438550
H        -4.61417937415993    5.87752064553773   14.49143684107776
C        -3.42563991829081    4.58281779163793   15.77468588994500
H        -2.88519030735990    5.43976485202986   16.19929707189247
H        -3.64344565494386    3.88237731485826   16.59516436338556
C        -3.01185650217095   -0.70582536016000   15.23849800376532
C        -2.31252091503382   -0.35616346025908   16.40877429197818
C        -1.45621097776214   -1.26865149545944   17.00314178107828
H        -0.92445813973792   -0.98561760529880   17.90217922044911
C        -1.27069702534423   -2.54217486084317   16.48151899447532
C        -1.98312001872847   -2.89184274839097   15.34549132694059
H        -1.86259813092653   -3.88253389829173   14.92761525484626
C        -2.85253981535931   -2.00578765477770   14.72767302946711
C        -2.52557609132492    0.99049615849729   17.04690540292874
H        -1.64518226333020    1.28461380496341   17.61579025142262
H        -3.36877224447419    0.94029995098794   17.73940145501799
H        -2.74729561667727    1.74174227853884   16.27373843461029
C        -3.61795547908480   -2.44515422280167   13.51321055565838
H        -3.00856025748828   -3.09605228884169   12.89059767561727
H        -3.92453274059280   -1.57513892382513   12.93650053805793
H        -4.51110796634127   -3.00076901232566   13.80401767552828
C        -0.31454199522351   -3.50074938601397   17.12722679284370
H        -0.52967762255339   -4.52393803293324   16.82877482583693
H        -0.37118298987805   -3.43084979688777   18.21183504884741
H         0.70920454215802   -3.26888040246975   16.83034517289200
C        -1.63226595408118    4.78622693372174   14.23207336293203
C        -0.47391563359526    5.01273564481791   15.00165050882861
C         0.51104277139300    5.86778972430956   14.54058798106542
H         1.39709161252105    6.02328751005029   15.14221881210303
C         0.39330287364379    6.53087633142400   13.32659784423600
C        -0.74494872621934    6.30553978901403   12.57227123169729
H        -0.86364501232299    6.81171239197017   11.62318547886611
C        -1.75154390034126    5.45088760848708   13.00212294116889
C        -0.28990779902308    4.31437900873681   16.31831043186525
H         0.76603876856346    4.12285528742298   16.49994613303272
H        -0.83652849893703    3.37209326863099   16.31311484482169
H        -0.66512596709916    4.92505513966805   17.14093219498940
C        -2.97152619399051    5.28730653654311   12.14108568115137
H        -3.48692323733196    6.24344538288129   12.03349458857534
H        -3.64835231849736    4.55535014628217   12.58123525985902
H        -2.69032000957488    4.95249760505223   11.14354663130631
C         1.47952484578445    7.45057966005108   12.85429836570767
H         1.69110486414108    8.21212361202854   13.60410756018899
H         1.19587790961850    7.94332076678169   11.92762265673353
H         2.39856306715374    6.89120733952519   12.68056100333826
C        -0.87752957934341    1.37833038783384   14.05137084503409
C         0.36564455509688    0.84786738667019   14.75437569427517
H         0.15206019044104   -0.15163728504464   15.13548246281369
H         0.62813714608076    1.47584234150022   15.60448013835439
H         1.21952019508595    0.78582921748047   14.07405706475074
C         0.14960573738491    1.06254413030080   11.89636240824644
C         0.14985942628172   -0.23271744279315   11.35893199442349
C         1.08494498917741   -0.56958342743843   10.39500582749018
H         1.08428822948052   -1.57075157421601    9.98584931549781
C         2.01574720331015    0.35437117061300    9.95401233066767
H         2.74176212161489    0.07946236448105    9.20274057306049
C         2.00762287979978    1.63422808570185   10.47970397237620
H         2.73139972876622    2.36133291406470   10.13744507601264
C         1.08473526973943    2.00397895803252   11.44398236460458
C        -0.86356911574396   -1.22463488845459   11.84252341388026
H        -0.63048284653982   -1.55047751555314   12.85697452873271
H        -0.89097185918049   -2.09771326035220   11.19417193897591
H        -1.84913132250292   -0.75921315071844   11.87136124872617
C         1.07305418024489    3.38657040256429   12.01911274539691
H         0.06179338711251    3.79014516714263   12.00420253100615
H         1.73093420235974    4.04774447446438   11.46016233392933
H         1.39584047677122    3.37669834493223   13.06044578297811
C        -3.82323798747166    1.99444979799387   11.90299243827189
H        -4.76412540859717    2.53094715313691   11.71874318621331
H        -3.98956583980563    0.96196449726956   11.57006844328273
H        -3.08688721646608    2.41114446247858   11.20723123864170
N        -6.23413923774830    2.09299909078568   14.18685568735058
N        -5.58347772097290    4.05373947241682   14.73125635039474
N        -3.87308067693096    0.21581766553380   14.61340046614968
N        -2.66007157240628    3.95341339093327   14.72146972783970
N        -0.87818126933484    1.44161011822091   12.76890487992591
Hf       -3.01483429755087    2.01612672547145   14.00323156264719

