51
CSD_code = DEDMEG | q = 0 | S = 0 | Stoichiometry = C14H20FeN14S2 | MND = 6
Fe       -0.00006900560188    5.96366910946139   -0.00008941250045
N         1.32963579247582    4.73644444617838   -0.90916846736546
N         2.36451103811901    3.00227090698694   -1.71234578498196
N         2.79739854592119    4.04367436155375   -2.42581182623361
C         1.48531170161285    3.42686511007977   -0.79684168965487
H         0.97653498494526    2.78954274596238   -0.10435929919512
C         2.16198034398610    5.07068968273438   -1.92338837232466
H         2.28933293240307    6.07552850447166   -2.26755389300511
C         2.83504834766129    1.67078894631920   -1.95882175943958
H         2.00345564203063    0.96874165839153   -1.91159759758368
H         3.58755954058346    1.38589223965416   -1.22083217920467
H         3.28345236928706    1.65084579042741   -2.95003579230449
N         0.90353845379172    5.67993769265564    1.81909245780904
N         2.03463568952794    5.94877652714817    3.65530666514886
N         1.52576150056621    4.71712885331594    3.72230037965620
C         1.65555235240280    6.52364727035064    2.50793543878565
H         1.93178021767416    7.51156752792639    2.20160200096420
C         0.85115888134296    4.58253612558905    2.60985042578523
H         0.29807800988726    3.70241940579334    2.35785753956601
C         2.86267004534693    6.47795273831736    4.69911677967549
H         3.90225975057348    6.53486403348515    4.37160873731878
H         2.79011920291050    5.80823613626797    5.55350559964789
H         2.52394053888007    7.47497378076798    4.97928310262088
S         2.18351727730596    9.94472118087489    0.35831283502230
N         1.13562949586138    7.47261973675332   -0.30705701721879
C         1.58618689949942    8.51989191073597   -0.02888352635958
N        -1.32774933664263    7.19083486800781    0.90932454082037
N        -2.36000587529823    8.92774109124303    1.71008182709495
N        -2.77503589784116    7.89179681185779    2.44197385510039
C        -1.49317140101765    8.49812084739906    0.78504712000944
H        -1.00000362600518    9.13053247932173    0.07691788378330
C        -2.14203503873643    6.86293837559897    1.94025635212713
H        -2.25846568744956    5.86121251018616    2.29712003726720
C        -2.83343312111547   10.25924771249863    1.95067041827720
H        -2.00399537065823   10.96352018136243    1.89764516109298
H        -3.58869287350333   10.53824348562847    1.21328790283562
H        -3.27889031114462   10.28282603770726    2.94311212379848
N        -0.90308296507648    6.24685716850831   -1.82049319610695
N        -2.03774409924387    5.97914212169813   -3.65459147045254
N        -1.51311162914068    7.20365193518913   -3.73066599521258
C        -1.66601519217530    5.40786402009185   -2.50305873736606
H        -1.95436701306511    4.42564820936138   -2.18970996130528
C        -0.83682071723762    7.33774024722557   -2.61916906178910
H        -0.27259763100147    8.21259833920779   -2.37345360763476
C        -2.87289741399708    5.45302707086680   -4.69425179615741
H        -3.91440557801232    5.42068027857650   -4.36941475043527
H        -2.78492112838007    6.11019621311913   -5.55690594568923
H        -2.55286814049118    4.44605323345393   -4.96036010825490
S        -2.19860342278402    1.98829367540954   -0.35308390640303
N        -1.13645479600887    4.45586992168505    0.30830319005358
C        -1.59361228296470    3.41063674258976    0.03243277991547

