37
CSD_code = DEDSOX | q = -1 | S = 0 | Stoichiometry = C12H14AuN2S6Se2(1-) | MND = 4
Au        7.29700151388382    1.84873922892953    0.00278422257878
Se        2.03605343258529   -2.47294244028432    2.09972875746798
S         6.73280850242664   -0.29410284316650   -0.74506090955292
S         5.53345901394453    1.84920183807116    1.52445936701668
S         4.43654675558025   -2.04960115291214    0.24599378291632
N         3.75973965171023   -0.21467802081394    1.88569937270500
C         4.86043680706227    0.26962309186193    1.20568556677606
C         5.36601643175958   -0.57804987996326    0.27989064994773
C         3.38996329740929   -1.44789918861465    1.50303322302641
C         3.11534740377994    0.59855923878349    2.91652822300466
H         3.69643487501999    1.52779479814534    2.93268882184488
C         1.67800571878250    0.93454351953685    2.53747040337302
H         1.05379493422692    0.04567444157121    2.55510606399169
H         1.64380350322832    1.37239817700956    1.54243709171049
H         1.28089081325752    1.65380158263604    3.24845897931398
C         3.22228046524082   -0.06318588082612    4.28526783229055
H         2.62943842047283   -0.97270111541889    4.32334608290581
H         2.85709437934404    0.62404572095669    5.04349196052697
H         4.25972928331785   -0.30570847887118    4.50525336943837
Se       12.55390322820071    6.17232911402558   -2.10045283777156
S         7.85566055971926    3.99524862995072    0.74351635566147
S         9.05451301292516    1.85162663808489   -1.52477097575921
S        10.15331984839129    5.74982626977722   -0.24645353770352
N        10.82984239303999    3.91444161318457   -1.88571455239950
C         9.72893000596425    3.43053636508217   -1.20567475362431
C         9.22337039228695    4.27855669543608   -0.28031481446482
C        11.19999237898442    5.14759137510644   -1.50316569154752
C        11.47408738038572    3.10096514023982   -2.91642868454865
H        10.89285197132284    2.17184059990056   -2.93238714678559
C        12.91132822691329    2.76476088520862   -2.53725669955841
H        13.53577527266672    3.65345481889111   -2.55518881609409
H        12.94541541446351    2.32723231064164   -1.54208195627066
H        13.30823928973516    2.04515922831261   -3.24800474705120
C        11.36727471539630    3.76226920221664   -4.28536355990841
H        11.96032129365488    4.67159635608418   -4.32375359616656
H        11.73221770606556    3.07470102679261   -5.04337581372017
H        10.32991170685104    4.00495109443435   -4.50539103357026

