75
CSD_code = DEDTEO | q = 0 | S = 0 | Stoichiometry = C38H30Cl2F2NPPt | MND = 6
Pt       -0.03891861214058   13.30394177632804    4.44662500128255
Cl        1.20112022010033   13.02164903259214    6.55326416879053
Cl        1.30889371968737   11.54697288888413    3.42075678092198
P         1.40120623132586   14.74006006801046    3.35839224283370
C        -1.19957581198299   14.69963786048319    5.35947343036088
C        -1.25491822490817   16.06765605405124    5.15188736447984
H        -0.66365934566279   16.56022771699234    4.39407464568647
C        -2.08975385979707   16.84350776190833    5.93644067735182
F        -2.13551039201654   18.17334931556249    5.71146651854252
C        -2.87951441367445   16.30417346150617    6.93619906728049
H        -3.51923968282965   16.94313911132182    7.52351276164214
C        -2.82013488841357   14.94283066899395    7.15344797157740
H        -3.43834751759063   14.50518286450236    7.92196652126437
C        -1.98688081619833   14.13798872838749    6.37609213486229
C        -1.89722821436190   12.68985956187739    6.54956455553814
N        -1.39962608481539   12.01018959751901    5.49752339781032
C        -2.28116900085841   12.03612099331462    7.71654040000256
H        -2.63746016547277   12.60473545706520    8.55911100885168
C        -2.13924470121210   10.66355316942086    7.80229532767003
H        -2.38670454049081   10.14138989808017    8.71410614678032
C        -1.69215065085671    9.97240476706596    6.69318151373722
H        -1.61265593328172    8.89705408614282    6.69575492584962
C        -1.34474999789695   10.67623572959940    5.53996526573056
C        -0.99619705820084    9.91796930816476    4.32935505413713
C        -0.06775566765450    8.88114156633532    4.38183395723354
H         0.45888210658766    8.68106092260276    5.30249777090107
C         0.23080582446798    8.15390533179944    3.24717248578719
H         0.96828571934324    7.36745233941333    3.26242258862536
C        -0.42317899388644    8.46166098403085    2.06774130803795
F        -0.14470675210325    7.74700858203819    0.95827176202265
C        -1.37123642397210    9.46555189320361    1.99503899675820
H        -1.86688011884737    9.67016604883598    1.05903981486454
C        -1.65407415448249   10.19401867921674    3.13367554789729
H        -2.40167007217945   10.97203790944532    3.10444045447218
C        -1.13545879509223   13.52317279631368    2.67029109050930
H        -0.70378277488449   12.77867493316015    1.99219048719250
H        -2.19326896356584   13.28883840834396    2.81945457181904
C        -0.99281021610965   14.88078333102911    2.08703575550216
C        -2.00901714227297   15.47347611969597    1.34639146499829
H        -2.93198431323548   14.93535345974722    1.18557140928966
C        -1.85239676129566   16.74571085092476    0.82383036692622
H        -2.65282049805991   17.19411912229996    0.25465392914303
C        -0.68393733858530   17.45343963502756    1.04890220806622
H        -0.57385555609821   18.45657022719546    0.66620366686290
C         0.33903277953359   16.88318484085695    1.78816675933438
H         1.22569206357193   17.45885012082566    2.00205311704051
C         0.19521338217720   15.59647411720303    2.28920899894273
C         2.28190006789172   16.05343786919913    4.26813575672286
C         1.92973956363711   16.21537141869871    5.60717017896129
H         1.22660361073094   15.52716230337553    6.05304138646921
C         2.49388715775481   17.21199265034763    6.37888493781618
H         2.20703088495118   17.31847669768579    7.41346670929156
C         3.42914675866498   18.06174761671377    5.81503869703662
H         3.87823962269424   18.84891414228119    6.40208878514696
C         3.79900001588451   17.89091942327822    4.49408383970018
H         4.54292258089441   18.54525728794719    4.06138427659975
C         3.24740662129564   16.89355609982903    3.69593191650774
C         3.76187560877852   16.76170897129160    2.29296168313150
H         4.66460586985649   16.14895472099204    2.28930059369965
H         4.02645781150567   17.74100798399037    1.89711209983721
H         3.04469608032256   16.29287028445501    1.62668303780463
C         2.59527147510314   13.95665033643219    2.24241261855080
C         2.28695707753062   13.84633889327355    0.88919831428421
H         1.34651073696136   14.23317058226595    0.51980812306405
C         3.17584258417586   13.24202931578597    0.02124594368303
H         2.93023009501737   13.15312336673320   -1.02637323052462
C         4.37283020701164   12.74233604212427    0.50492751207989
H         5.06928642211228   12.26270166042091   -0.16675673550683
C         4.67094092035574   12.83835682130777    1.85301921189460
H         5.59727093193184   12.42529710057988    2.22625493451319
C         3.79255779398853   13.43545806866337    2.74637918070452
C         4.10792355152106   13.49699574227053    4.20415341252601
H         4.52676006828838   14.46704037261339    4.47654994689099
H         4.82850658828355   12.72740165354701    4.47122646307072
H         3.20354170105120   13.33904047658529    4.79528501083235

