75
CSD_code = DEDVEP | q = 0 | S = 0 | Stoichiometry = C28H38N2O6Zn | MND = 4
C        -4.38782795652975   -2.80661708628435   -8.08469213248772
H        -5.21146073115809   -2.20733797368065   -8.49089510540718
N        -3.45880075386297   -3.05766378745594   -9.19140780649746
H        -2.59290482662942   -3.43492628086633   -8.80575620282129
O        -3.09638290544964   -5.66558438387696  -11.01370171185989
Zn       -4.33037880956302   -4.55465954918283  -10.39732434997683
C        -3.73593383563415   -2.05724677781555   -6.91694805336371
H        -3.32877101853621   -1.10697034160949   -7.26443207299436
H        -2.90924037238539   -2.65603993923627   -6.52532135070100
N        -5.53859097291036   -4.89409531152541   -8.69543984887211
H        -6.42405289741781   -4.45916371314745   -8.95515102980126
O        -5.45040263614347   -3.98810842427398  -11.65722316168369
C        -4.74471275409262   -1.79372518710350   -5.80354180053600
H        -4.25512247422694   -1.27072924140251   -4.98113980445460
H        -5.54204057615887   -1.15053366755942   -6.18130014402468
O        -4.63846168163939  -10.56803927771248  -14.72733885440666
C        -5.33955262993841   -3.10551813343395   -5.30718971104298
H        -6.08590747789817   -2.90933929224289   -4.53651534692976
H        -4.55307871079313   -3.71859740002429   -4.86224098836542
O        -5.18092156719631   -8.82650324000142  -16.03251761146825
C        -5.98311754177790   -3.86616040710465   -6.46223736224302
H        -6.80850420608458   -3.27753672818331   -6.87103360678071
H        -6.39130568516316   -4.80680011584949   -6.08995963646522
O        -2.42954171859467   -3.51154816826491  -17.15195743653559
C        -4.96556557989477   -4.14145041525061   -7.57540170079147
H        -4.13985404201748   -4.74318446247536   -7.17551269037186
O        -3.09031404396687   -1.37840158863914  -16.93859798663782
C        -3.10569391142437   -1.86667294859494   -9.97739963128881
H        -2.69757607165304   -1.07727996725743   -9.33265352291440
H        -4.01755821955688   -1.49534041011144  -10.44848610077289
C        -2.08626605753578   -2.22324912300860  -11.04604366729794
H        -2.45768491183130   -3.03367066886979  -11.67136320249574
H        -1.14612941432409   -2.53521393487404  -10.59585649853598
H        -1.89895114378709   -1.36282968289491  -11.68231567597473
C        -5.81241429133249   -6.30798416074798   -8.41331517639206
H        -6.50337898843849   -6.41544418530467   -7.56674344322712
H        -4.86587145872597   -6.78511895147048   -8.14581905897937
C        -6.40641165599206   -6.98310914699129   -9.63837442738820
H        -5.74091093854180   -6.88017624841430  -10.49475643670732
H        -7.36597647815357   -6.53949653753768   -9.89424759586781
H        -6.55402945017379   -8.04240407253579   -9.44640294582066
C        -3.49892625234051   -6.50187531919504  -11.96451447356227
C        -3.34404782052965   -7.89037550332801  -11.74073260478904
C        -3.73861930582348   -8.79353441207084  -12.69962205370057
H        -3.63189948540234   -9.85552097432752  -12.53340670607135
C        -4.28453265638597   -8.36187645723728  -13.91024959263369
C        -4.40797922091321   -6.99682423660208  -14.14568340166054
H        -4.82190856655267   -6.65776886136590  -15.08274518600044
C        -4.03058304972259   -6.05889174193581  -13.19542446132930
C        -4.15699662661009   -4.63119736455747  -13.57510169325015
C        -4.88175170189402   -3.68203457476384  -12.81695434472847
C        -5.03712264197164   -2.37345979336542  -13.33191232348378
C        -4.43937313259352   -2.02245345350084  -14.52112685478463
H        -4.54403691394490   -1.01962895894065  -14.90913729725396
C        -3.69122430788981   -2.94518601585655  -15.25247274374718
C        -3.58012391650629   -4.24769299414137  -14.77596251957093
H        -3.01855594376840   -4.97266249674479  -15.34467046200425
C        -2.73780093125812   -8.34202424909230  -10.44502171450506
H        -2.72038432435008   -9.42675812926104  -10.38539523870418
H        -3.30349726644625   -7.94455967350039   -9.60222417592361
H        -1.72085930596997   -7.96167359585326  -10.36086292468688
C        -5.86801392019905   -1.36900838765994  -12.58261489817793
H        -6.72883025107430   -1.07495585798481  -13.18149060370768
H        -5.29029198673184   -0.47053620580546  -12.36558184569382
H        -6.22889005731445   -1.80817044368874  -11.65583078156884
C        -4.70111230964728   -9.36974007292041  -14.89231857539106
C        -5.60066693992256   -9.74877453510163  -17.02004141116541
H        -6.41545287907237  -10.37073003772449  -16.64100157222531
H        -4.77326942671872  -10.40057085898894  -17.31100316244012
H        -5.93623337839824   -9.15677735911730  -17.86824488495539
C        -3.06194038259035   -2.50875929882763  -16.50398951682639
C        -1.80814541911155   -3.15561026269409  -18.37286705742420
H        -0.99818534022188   -2.44353871616978  -18.19595690164801
H        -2.53230637118615   -2.69696395755824  -19.05030871318295
H        -1.41773656977778   -4.07759426733144  -18.79717441199616

