85
CSD_code = DEDWUE | q = 0 | S = 0 | Stoichiometry = C36H44FeN4 | MND = 4
Fe       -0.00002484650761   -0.00001030053543    0.00001217999193
N         1.37776293586769    1.12160459856708   -0.90680152967637
N         0.12084114091717    0.92529948785482    1.76190288676825
C         1.88031382620373    1.11609141137254   -2.17491848112345
C         2.86416305446120    2.15542405163421   -2.34793068404447
C         2.95785379812250    2.79343702739529   -1.14903385321744
C         2.02757351593694    2.13476130314261   -0.25946944452960
C         1.85705755065385    2.50971367642624    1.05801367738550
C         0.98484976235654    1.96229324404185    1.97734202975313
C         0.87240929501255    2.44386433035696    3.33547003949920
C        -0.08858287195348    1.68955661199862    3.93538621705730
C        -0.53573198848552    0.74411162172902    2.94399285388979
C         1.49613381351660    0.22365857658825   -3.15431594066680
C         3.57343220205397    2.45222105881934   -3.62668409146125
C         2.69052623334333    3.26892355650984   -4.57345511142106
C         3.80513751578213    3.96920334033553   -0.79172633185153
C         3.00251146914531    5.27136371079874   -0.84778380248341
C         1.64076920756666    3.58439282015314    3.91744941441771
C         1.01471800471204    4.92685351147976    3.53112823534918
C        -0.57900895367771    1.75319121849357    5.34385980031688
C         0.12135597466170    0.71064182123338    6.21895150423707
H         1.96420174647361    0.28531433765632   -4.12308777279969
H         2.47285457267790    3.32288247893058    1.40822625229622
H         3.86144463211864    1.51820459156413   -4.11509104380726
H         4.48692402157029    3.01258574324042   -3.41733648886568
H         4.64293521477792    4.03724673697995   -1.48875151714181
H         4.22004880821875    3.84035723704550    0.21076333388713
H         2.67698140993668    3.55193679623459    3.57325250429482
H         1.65319453195202    3.49425593033663    5.00527759798890
H        -1.65775980713016    1.58276064877332    5.36779743551563
H        -0.39259481473937    2.74879802105118    5.75086545252179
H         3.21110861003575    3.46236886536237   -5.50907394621562
H         1.76834506609663    2.73484920574132   -4.79024477313424
H         2.43070176435070    4.22193658584577   -4.11866384687148
H         3.62742971778186    6.11701658937428   -0.56811236451848
H         2.62498781312682    5.43797718258910   -1.85388309450111
H         2.15247078368929    5.22596488006683   -0.17106769223272
H         1.58558977538805    5.75053074014331    3.95491468673928
H         0.98925706346511    5.03963394850229    2.44986933576392
H        -0.00655968840437    4.98526758272446    3.90095916831684
H        -0.05295996182946   -0.29052215039153    5.83187316508851
H         1.19461196482318    0.88739878810312    6.22874371847088
H        -0.24835623302569    0.75940478543653    7.24111801324084
N        -1.37775498483975   -1.12167324698958    0.90684899230825
N        -0.12093384033836   -0.92528026786568   -1.76189649532915
C        -1.49619002642365   -0.22367341042516    3.15433707088562
C         0.53558223322889   -0.74404167733190   -2.94400995268730
C        -1.88026229630061   -1.11619963445065    2.17498320684591
C        -2.02750147756787   -2.13488753478896    0.25954266666352
C        -0.98498067209782   -1.96223961728590   -1.97734959768700
H        -1.96426657920515   -0.28532626933621    4.12310438697057
C         0.08831558678196   -1.68938041064855   -3.93545174154992
C        -2.86397849704033   -2.15564894934362    2.34804825992627
C        -2.95765621793393   -2.79367309035289    1.14915645176648
C        -1.85708019877289   -2.50975868259149   -1.05797669442503
C        -0.87266320429073   -2.44369905089503   -3.33552773071120
C         0.57863933965662   -1.75291560755591   -5.34396546689806
C        -3.57313499593739   -2.45255261373284    3.62683968503905
C        -3.80481722485424   -3.96953889322112    0.79188612236385
H        -2.47286635645805   -3.32293954818445   -1.40818397439614
C        -1.64113797323834   -3.58412505779097   -3.91755847450048
C        -0.12169184452520   -0.71021471591539   -6.21890500876622
H         1.65740434428151   -1.58257774091775   -5.36796010755071
H         0.39210785673025   -2.74846409463969   -5.75106014303919
C        -2.69003728560610   -3.26912363731155    4.57355484116813
H        -3.86126273966332   -1.51858132472863    4.11526614551101
H        -4.48655319409159   -3.01305757481991    3.41753826966166
C        -3.00201231545702   -5.27159425650909    0.84782094010699
H        -4.64254239625065   -4.03772140194217    1.48898425999745
H        -4.21983717543497   -3.84071371985340   -0.21056147667922
C        -1.01512363056168   -4.92666814166161   -3.53146262027119
H        -2.67731377865759   -3.55165136809560   -3.57325226806023
H        -1.65366886403614   -3.49386077516345   -5.00537553944833
H         0.05274992450427    0.29089620911718   -5.83174535700000
H        -1.19496640500632   -0.88686580043033   -6.22863589463812
H         0.24793963135863   -0.75891531610253   -7.24110409576583
H        -3.21065978541664   -3.46278291066243    5.50913612641361
H        -1.76799954441902   -2.73477687392487    4.79041634665573
H        -2.42996699850121   -4.22202995182999    4.11861701189591
H        -3.62684113700724   -6.11731857123363    0.56816370585999
H        -2.62438468601899   -5.43820167528923    1.85388259731746
H        -2.15203290375905   -5.22605178283683    0.17103668925116
H        -1.58608736243574   -5.75025846161944   -3.95529745968524
H        -0.98956521004821   -5.03958451183149   -2.45021911507522
H         0.00611525460721   -4.98509424271337   -3.90140225467293

