71
CSD_code = DEDWEP | q = 0 | S = 0 | Stoichiometry = C29H37ClN3Rh | MND = 6
C        -0.11934186503130    6.84892843760923    8.31830593528573
C         0.99696996577022    8.09921947092331    6.82055999297906
C         1.88017928780638    7.68468718870384    7.75246132662570
C        -1.44653881589996    7.74033844280203    6.50569163815279
C        -1.83967790816449    8.94502577271814    5.91535328660326
C        -3.07679915594086    8.94373138806051    5.28084641433106
C        -3.85197834173170    7.79751919754054    5.25938383028237
C        -3.37516321570244    6.67516875212725    5.91390338381959
C        -1.04762953409302   10.21131769474234    6.01098042675273
C         2.61863284640066    5.18016491894638    9.54757807758922
C         1.82084219946536    6.30841306087027    9.77412870840768
C         1.67145138299227    6.85954990299901   11.04838147112942
C         2.32520916093805    6.24067372090478   12.10744140345721
C         3.11639344658236    5.12809576247954   11.90391735892653
C         3.26610837297457    4.60651025403071   10.63282322023156
C         2.78817389232038    4.58670601892566    8.16668482824358
C         0.82389475022390    8.08211744554664   11.29643212380131
C        -0.40105972358059    7.69590329388010   12.12546563789288
C         4.22387717325355    4.79814941387754    7.67727808565574
C         2.43285963021351    3.09810711026313    8.14615287989671
C         1.63323170332920    9.18782925354819   11.97698063968502
C        -3.84819908942989    5.51847915971200    9.34971346295561
C        -1.55982379039399    4.09125145219602    8.61897858174211
C        -3.29605412685104    5.59363078084945   10.61297940848629
C        -0.91835107513107    4.34948367585292    9.83427515864873
C        -4.10556405866990    4.21486815246324    8.62910606030272
C        -2.85768929100519    3.31498516241690    8.53358133104378
C        -2.92021667161693    4.36810417633155   11.41737079209308
C        -1.45968190384843    3.93757394663458   11.18580999995343
N        -0.22355640299341    7.58348245840299    7.17689721539156
N         1.18383985487346    6.92556308165206    8.66356297324890
N        -2.20409155963216    6.64620667886835    6.52720236745488
Cl       -2.39788324307315    8.37297141581777    9.28945393936775
Rh       -1.79998907732230    6.13702371494892    9.13470410220267
H         1.15230895811293    8.67281888603179    5.93221464611765
H         2.92949085229899    7.87000509412710    7.85595851666853
H        -3.43570391185747    9.85388423704114    4.82212728099921
H        -4.81255708714080    7.78487739886829    4.76899947033571
H        -3.94573796558265    5.75765950710480    5.94187493848979
H        -0.52738068630895   10.26508274222835    6.96447240523855
H        -0.31951844782224   10.28761550857882    5.20243828648346
H        -1.71819511572285   11.06422069449349    5.93634642305597
H         2.21701414920011    6.63931284914035   13.10401377865823
H         3.62179693453863    4.66431846284958   12.73817020234950
H         3.89182322729843    3.74003943223748   10.48540932061071
H         2.11079654157283    5.09321838522961    7.47238631949701
H         0.45390844440630    8.47210749906400   10.34452017231474
H        -1.02394559676183    8.57079337062082   12.29100801404947
H        -0.98803910380560    6.96247796070296   11.56641455073880
H        -0.11602860271812    7.27270497265975   13.08630382774326
H         4.47886643583659    5.85561453891848    7.66934424973611
H         4.92909759387734    4.28358339476382    8.32539233162241
H         4.33719141100969    4.40954306789200    6.66774568594901
H         1.42172454471324    2.94094825195021    8.51380023976905
H         2.49094608661418    2.72088480567352    7.12744145305326
H         3.11751812564675    2.51996508757591    8.76090720196909
H         2.52634758931452    9.42154910764817   11.39981043918990
H         1.93855461585452    8.89647291289931   12.97897930535204
H         1.02753365373881   10.08740670583617   12.05414211227508
H        -4.46513594550231    6.35042235168444    9.00769979466967
H        -0.93550217152228    4.01673140630230    7.73013336433038
H        -3.48892636180590    6.49146860474882   11.19878399250669
H         0.16738209912800    4.41300859093265    9.83002677922152
H        -4.91446209297798    3.68039431779218    9.14176517407993
H        -4.46144835480225    4.44017670148208    7.62312358417701
H        -2.87119808389709    2.56813923235043    9.33113138044169
H        -2.88589274070935    2.77350674625697    7.58580398518003
H        -3.59906515439531    3.55367964869255   11.15590251539656
H        -3.06346002547639    4.58021550496470   12.47901560071557
H        -0.82474013440039    4.39053406827108   11.95102193139177
H        -1.36633849696728    2.85023759474843   11.29448466291136

