111
CSD_code = DEDXEQ | q = 0 | S = 0 | Stoichiometry = C53H53BN2PRh | MND = 8
C         1.82277913414973    4.85184824618458    8.73605778980859
H         1.76771038689585    5.83736606888209    9.20234966140950
H         2.77169496676701    4.75291452129125    8.20193078198156
C         0.66561008844580    4.67180878602186    7.75400340314625
H        -0.27847800468434    4.61452990362986    8.30651725899853
H         0.61144772769001    5.50986313700512    7.05408402704419
C         0.88366077320264    2.21273180837442    7.51072359046971
C         1.35063900875457    2.14063310626806    5.32696809002616
H         1.62043215109416    1.69196639956941    4.39391802648942
C         1.14323708981488    3.43282784834915    5.65572981191976
H         1.17119711631752    4.31732836705555    5.05296614491678
C         1.42998634813558   -0.00457378324295    6.48422492736004
C         0.51676152761215   -0.86133819895570    5.86043971064347
C        -0.79964598110961   -0.37115385317617    5.30199894579038
H        -1.03618204051357    0.59853065581156    5.75085635187146
C        -1.95107706234045   -1.33096194323023    5.62154321067761
H        -2.89695672359639   -0.81605816567156    5.47633535873942
H        -1.91320499654560   -1.67663475308927    6.65125322534877
H        -1.93277239584432   -2.20003826058269    4.96784274370881
C        -0.71911625548695   -0.19997011054951    3.78132156221813
H         0.01242678009072    0.55066988197411    3.49581844782024
H        -1.68933483014509    0.11176828970549    3.40296238327673
H        -0.44716898863838   -1.14119431663279    3.30735676581357
C         0.84480133752483   -2.20904352260589    5.76555158199781
H         0.16215822307077   -2.88905950634849    5.28248935537248
C         2.03290419848066   -2.68881797932743    6.27719976449131
H         2.27597289324013   -3.73708247193263    6.18582282168418
C         2.91092195677308   -1.83253676549213    6.91578176318172
H         3.82854233267675   -2.22961873698815    7.31690221338918
C         2.62863786780733   -0.47898878450819    7.03671762369481
C         3.59373162234399    0.46264977172067    7.72514163337524
H         3.00237837052545    1.19793511344396    8.29511102161578
C         4.51532091185966   -0.23754596424367    8.72191813970321
H         3.94112677796717   -0.85569208212018    9.40705509471245
H         5.05134522143912    0.51093190084425    9.30122576122997
H         5.25163082925359   -0.85793169450662    8.21608413195503
C         4.43847876806423    1.20952253546300    6.68810614396899
H         5.02060953115689    0.50250496930589    6.09987471250846
H         5.12461708544756    1.88853850470470    7.18999623290765
H         3.81774072495816    1.78935543580716    6.00963684452562
C         0.87353962073939    4.42333081303513   11.37701757342694
C        -0.51873171176353    4.43244787750943   11.37170532918264
H        -1.05945988114072    3.89032958691474   10.60397504499068
C        -1.21609794434811    5.10788597095342   12.35569531528604
H        -2.29531595210176    5.10052006815005   12.34295074936857
C        -0.52688827689905    5.77154503573452   13.35760939179083
H        -1.06916346046769    6.29233658758698   14.13270223082958
C         0.85829975210939    5.75820085017086   13.37264657407950
H         1.39657899532385    6.26861706970540   14.15831198167320
C         1.56058792818548    5.08666585272395   12.38746410343943
H         2.64093381132785    5.07316677302768   12.41211921433478
C         3.41479040782620    3.39419658822288   10.61679625735306
C         3.79975641521837    2.18133610027742   11.17733272813382
H         3.08227565808991    1.37100126805222   11.20087306523923
C         5.07521153119150    2.01108465355458   11.68344203512144
H         5.36374391071094    1.06618946031837   12.12045033796558
C         5.98419951884977    3.05468925901334   11.62438672887510
H         6.98286941128817    2.92638191194187   12.01450114810477
C         5.61062626235161    4.26497897754636   11.06277308703102
H         6.31878191659569    5.07970374111183   11.01804654707005
C         4.33188356776898    4.43958836725511   10.56350147640668
H         4.04969195109937    5.39275326009402   10.14056120753539
C         0.31181027333851   -0.77699607047951    9.52200486025575
H         0.72591479243997   -1.55926755626044    8.89655985818969
C         0.89613773324107   -0.47076603968231   10.74906349313500
H         1.77302695380330   -1.00128716002841   11.09894973098645
C         0.29921509660215    0.52640284911001   11.53995263945456
H         0.74201659624313    0.77937690851074   12.49918643975188
C        -0.96508397331459    1.04292402741116   11.21486756702506
H        -1.46514015595153    1.67730485149580   11.93636013078798
C        -1.62589359867364    0.69577064070041   10.02321488259291
C        -0.87664909278012   -0.12200675853963    9.13786988102534
H        -1.34566180279812   -0.40915116510656    8.20563669730637
C        -3.28328462569038    1.46083788903069    8.10757299518026
C        -2.38825621800704    2.38219645372346    7.56509391430963
H        -1.61895820335749    2.79364748257996    8.21650642049612
C        -2.45202016166600    2.79280050904837    6.24568872524836
H        -1.74465601914287    3.51774550907301    5.85875341209166
C        -3.43442692564687    2.28263794951929    5.41329862428546
H        -3.49450084553836    2.59900080042095    4.38022396922156
C        -4.33887649701007    1.36686531548314    5.92319985247910
H        -5.11342308802755    0.96472484267187    5.28203387086802
C        -4.26046472595586    0.96733404328560    7.24717355775977
H        -4.97741882108137    0.25019598019556    7.62118766891560
C        -4.08580630192801   -0.24478999777990   10.00468687444292
C        -5.46747446677894   -0.08409165924683   10.12561639481531
H        -5.88757503950615    0.90688902881507   10.01710893308860
C        -6.31223625197038   -1.14740160552862   10.38325156039994
H        -7.37885191535041   -0.98351598481338   10.46895419995774
C        -5.79645221566312   -2.42375557507979   10.53473484567052
H        -6.45125040838294   -3.26007523014370   10.74022151771499
C        -4.43141341451942   -2.61319117092687   10.42236643437563
H        -4.01276552574339   -3.60515798872353   10.54123886945086
C        -3.59724309297069   -1.53860075127720   10.16061309220071
H        -2.53324798834767   -1.72627031659750   10.08285479705824
C        -3.70249110072267    2.28325462378794   10.62036789642106
C        -3.96681382935148    3.56789366099743   10.15156247921701
H        -3.80020285786101    3.79634709441791    9.10726286915436
C        -4.46613786641147    4.56394589344463   10.97462428999082
H        -4.67134771024174    5.54789056600943   10.57046603267566
C        -4.71059102962730    4.30428346725102   12.31243289602248
H        -5.10626524985686    5.07729653110541   12.95875012352890
C        -4.45144292559096    3.03751389810531   12.80964021492760
H        -4.64378614506451    2.81877361680556   13.85247482838246
C        -3.96139863116364    2.05146083463035   11.97296704964554
H        -3.79645636192663    1.05963400470190   12.37463411113029
B        -3.17285542791001    1.06385392126910    9.67998379034914
N         0.85403665837680    3.46321297195222    6.99359808922734
N         1.18652294467327    1.39975836494261    6.47160663429793
P         1.69244526896766    3.50861177511973   10.02271275694716
Rh        0.58491628986346    1.69110429261825    9.38059004089448

