29
CSD_code = DEFBOH | q = 0 | S = 0 | Stoichiometry = C9H11I2N4O2Rh | MND = 6
I        -2.54808627612049   10.43464238036939   12.71019608952125
I        -5.29533651892862    9.39098532036520    8.25719240097906
Rh       -3.80193796774765    9.92014286611571   10.40653180815466
O        -5.36239054863455   12.42827328688755   10.72517693582498
O        -4.79085334381857    7.54732298149546   11.44649068816745
N        -2.19394459653974   11.19003403834653    9.18699702561838
N        -1.30883541238940   11.99532138460138    9.77783971664479
H        -1.29395126358785   12.07830426346131   10.78847441291006
N        -2.53555614598359    8.30824965384667    9.98262369004026
N        -2.92559420215651    7.15541276878818    9.43942791999598
H        -3.90737958679721    6.96261239031486    9.28312442847058
C        -4.80607720811965   11.43719429572453   10.64399659333666
C        -5.04658851341593    8.71328477525506   11.45556834481140
C        -6.22018207788151    9.32046071025980   12.17061974696020
H        -6.72992984896717    8.53809181902639   12.73380147517837
H        -6.91356235842874    9.74791214552484   11.44522213435890
H        -5.90314011586986   10.10879431086263   12.85241624833414
C        -0.51272324732915   12.59442484036507    8.88043485105729
H         0.25798880760502   13.27707594228072    9.17480156197054
C        -0.90628880680322   12.15146916703625    7.63794189121191
H        -0.49742501393614   12.41884952128810    6.68656660082391
C        -1.96380005542588   11.27291070533208    7.88632780745808
H        -2.55017293294249   10.71864368513671    7.17965756404839
C        -1.21401033700547    8.24273991683684   10.08823939484033
H        -0.63476667790752    9.04377081552203   10.50694179004025
C        -0.75477259054429    7.01839863111723    9.60476973400029
H         0.25914367283967    6.68043923311875    9.56454050310273
C        -1.88756820209292    6.34679154653145    9.20192574170584
H        -2.01335863106919    5.37424660418875    8.77195290043216

