56
CSD_code = DEFCAU | q = 1 | S = 0 | Stoichiometry = C27H21N6OOs(1+) | MND = 6
C         6.94440911400220   -1.30971360868490    9.46309792053239
C         5.10568538201316   -2.01179818250557   10.51179798069919
H         4.06341718719320   -2.04108996867799   10.75325686339994
C         6.14163537561401   -2.74149152311300   10.99253127784293
H         6.15487897327994   -3.52046688238174   11.72582998428329
C         9.40611661755912   -2.05677290734987    9.51862860044579
C         8.60050458741577   -2.72398859676770   10.43473626668959
C         9.13810835717669   -3.65290026042341   11.31376096607598
H         8.52367434300137   -4.18240098578117   12.02495107101359
C        10.50578133637648   -3.89127784126910   11.26643669909625
H        10.93379723934411   -4.61450158874085   11.94231574914730
C        11.34127960874613   -3.21708756337342   10.38498315337302
H        12.40164616602536   -3.41526605003352   10.39008734758591
C        10.77625277801645   -2.29355682834629    9.51754887319829
C        10.70910883021570   -0.56940998515747    7.87133713885592
C        12.75257264843562   -1.43088621469303    8.21099347581229
H        13.50563299313594   -2.06012664745157    8.63714546263990
C        12.84936706995550   -0.47905359039793    7.25110780984599
H        13.69802146797674   -0.13311014961493    6.69826983701157
C         4.81709878711551   -0.21744219053941    8.82970598942224
H         5.45477179120720    0.30667682211434    8.11979441121241
H         4.34450674145007    0.50576306819171    9.49707953614995
H         4.03776699723971   -0.74893980400720    8.28226703194858
C        11.28535489828296    1.05592662587303    6.09749693927484
H        10.20688973017110    1.20209876287370    6.06728726254977
H        11.63160212667356    0.75749318155328    5.10734558555782
H        11.77183860823034    1.99479940574125    6.36992102468523
C         7.35152162579941    1.28628419241201    6.19112150818575
H         7.26083122693637    0.38531661570973    5.59863229617275
C         6.91739901576956    2.50297936650765    5.68133383454265
H         6.49122759021332    2.53826321783186    4.69191734105002
C         7.03499665722344    3.64965248846375    6.44223587196873
H         6.70602263672996    4.60677140027397    6.07007351372870
C         7.59530061944395    3.54801479808282    7.72244307407000
C         8.01104395129479    2.27163952970322    8.16221753249209
C         8.58619373595442    2.11863053002475    9.45577629374892
C         8.73787821799734    3.24529912910877   10.29628114295915
C         9.30739087381959    3.04522811693361   11.56023489194232
H         9.44022623638497    3.88021560406080   12.23048114346199
C         9.68806610613281    1.77004890353166   11.91944145419929
H        10.12941838194388    1.57246136088741   12.88284385252726
C         9.50199205300563    0.71826628597833   11.02710922730753
H         9.80119826839431   -0.28347055020126   11.30819883676044
C         8.30921371910732    4.51961502090819    9.82413522603295
H         8.43270663906635    5.36909153446359   10.47831178073149
C         7.76311626020893    4.66418748937345    8.59321041751869
H         7.44052291961479    5.63223874156650    8.24168728584699
C         8.25863407714424   -1.76288828508766    6.95435686824317
N         5.61700375994142   -1.14617566749008    9.57914660352669
N         7.25916033075182   -2.30454079012423   10.34229855667048
N        11.43945348991031   -1.47799344898248    8.58010112775704
N        11.59157915415668    0.03184165736492    7.05757071508978
N         7.89242020450396    1.14572353614824    7.40427545705681
N         8.96770337177920    0.86566240856981    9.82105416997797
O         8.01553411874126   -2.45681678076663    6.06839017620764
Os        8.62932500217752   -0.58852290229007    8.36370554187003

