88
CSD_code = DEFHUS | q = 1 | S = 0 | Stoichiometry = C42H39ClN3P2Ru(1+) | MND = 6
C         4.47242497964634    5.47589881350828    8.14400266445980
C         5.77457740852799    5.90383880732525    7.73836227964822
H         6.40688876819251    6.05857377234990    8.61244458807973
H         5.69548074034483    6.83934109095084    7.18386556324225
H         6.22345666510630    5.14272042736835    7.09849974607526
C         2.13976629438851    4.22829113043588   11.74983693970396
C         2.37971054656313    4.13359984927430   13.15675118410282
H         3.32805838482135    3.62671509118392   13.33406560002123
H         1.58021964162383    3.56105748497392   13.62647535380742
H         2.41145760617748    5.13273499225699   13.59225916112707
C        -1.22913509257693    3.38368073484547    8.82198506065491
C        -2.57980570770471    2.92667231676006    8.72606075016732
H        -3.22148586999815    3.75439290779638    8.42115218075625
H        -2.91640304082411    2.54564985559000    9.68999201816316
H        -2.64136898172291    2.13012518181083    7.98403411589713
C         4.03996093845124    2.07211406097994    7.44790014079680
C         1.33691993766730    8.03370006221821    7.92696378992242
C         5.01013808608533    1.13728845859052    7.79856762382058
H         4.88360849712752    0.51723846578816    8.67448033258311
C         2.24369919060040    7.85815156359764    6.88989758258838
H         2.62123316059058    6.87150703348050    6.66439294747946
C         2.63417213411949    8.94356204438563    6.12321206023245
H         3.33211381240346    8.80267699616766    5.31122558644060
C         6.32576572140045    1.78455127127199    5.89548499055483
H         7.21613886436864    1.67220678288756    5.29553307954721
C         2.12319409326452   10.20248853623530    6.38586117121407
H         2.42692695069365   11.04592048618446    5.78469229049393
C         5.35260551912462    2.70132494549617    5.53201578428724
H         5.47760178386151    3.30046585808078    4.64204292021869
C         1.21119303474576   10.37940656794723    7.41592113519030
H         0.80484385215378   11.35927975986925    7.61648391135863
C         4.21139996408457    2.84351649141808    6.30084949603964
H         3.44176622518107    3.54512677735888    6.00782553358997
C         0.81447726128980    9.30164248013055    8.18233206102827
H         0.09819517193082    9.43731748840098    8.98106131695926
C         2.80751841572514    1.50314577835651    9.98071538330649
C        -1.04320718306448    6.81491727419551    8.68816999811500
C         3.96094430007871    1.87415944444672   10.66916960907087
H         4.66571100659050    2.54975875745907   10.19950400782556
C        -1.56237581241762    6.27054893250061    7.51503491323193
H        -0.90543826239271    5.75195103572624    6.82956924477116
C         4.20529330437331    1.37630406239096   11.93533526185922
H         5.11534230591021    1.64358182418284   12.45324622250408
C        -2.90730912196729    6.40253787400244    7.22145600718853
H        -3.30041936022484    5.98107370620280    6.30791814269329
C         3.28741137666894    0.52858541275186   12.53712336414173
H         3.48271268090515    0.13322331512894   13.52242959226270
C        -3.74478058406070    7.08397556702157    8.09024955671603
H        -4.79467205631864    7.18867726796557    7.86173801584545
C         2.11768207686312    0.19385772527356   11.87494764551617
H         1.39676239796737   -0.45583102534351   12.34822298107373
C        -3.22875280886588    7.64279675567531    9.24765677825129
H        -3.87503142109565    8.18814284788001    9.91909327378229
C         1.87302083389447    0.68305111827809   10.60377420050932
H         0.96063637240068    0.42071985953024   10.08538424670031
C        -1.88379159023991    7.51516570911223    9.54815487856056
H        -1.49631213366392    7.96374846507853   10.45170290528614
C         1.47693808307518    1.00172001137057    7.49530326714814
C         1.00990204106640    7.24105177022367   10.64879590684293
C         1.83440069814764   -0.34177874114505    7.60211729751094
H         2.66989158357166   -0.63131077082212    8.22391409020229
C         1.98745075518303    8.17745093786236   10.96446798799644
H         2.58446186496896    8.61721549987237   10.17760236855486
C         1.11913097260821   -1.30303956528486    6.91496784450651
H         1.39695490739434   -2.34260945668788    7.00272832403004
C         2.18472517779530    8.55597731857700   12.28131914645135
H         2.93567516383737    9.29377691004854   12.52059611161934
C         0.05283406979258   -0.93458336007232    6.10842859726283
H        -0.50138583179227   -1.68875287724864    5.57067824547518
C         1.41668939390430    7.99803888505879   13.28991135125257
H         1.56271528581065    8.30685680664427   14.31406641157796
C        -0.29039328942467    0.40053511517200    5.98403613164888
H        -1.10723710655182    0.69107181657882    5.33994538970819
C         0.46132555934602    7.03993456758819   12.98405089861601
H        -0.13435424696650    6.59953789508920   13.77061073837515
C         0.41948742508594    1.37018524008623    6.67217016405744
H         0.16933581203351    2.41459646168940    6.55101654927049
C         0.26744458543626    6.65240687673174   11.67172579160220
H        -0.46794188250330    5.89536839554696   11.42464456925237
C         6.14871183919365    1.00153742643410    7.02468735068578
H         6.89854151068179    0.27575431890767    7.30186544687414
Cl        1.27204689654090    4.66932178776536    6.38385591600059
N         3.42079824729297    5.13617752992835    8.46831812845168
N         1.94378424035431    4.30228645313186   10.61721848064515
N        -0.13953394204546    3.74823946754649    8.89874632806792
P         2.47331225912939    2.25576634447084    8.36201846717464
P         0.75477818942198    6.64595306113663    8.95153318509126
Ru        1.64066845881137    4.45254357906692    8.71933232459903

