68
CSD_code = DEFHIG | q = 0 | S = 0 | Stoichiometry = C25H37BN4Zr | MND = 8
Zr        9.48893532836956    5.22788636218752    9.44844448044643
B        11.00731114624339    3.28342186818557   10.76779739425284
N         9.41987777855404    5.62075003719532    7.46048950249323
N         7.61228642478895    5.60669473581835   10.05695651845505
N         9.84533801473459    3.24807718751960    9.91712377574290
N        11.54201833439253    2.20066502322377   11.48490115298939
C        11.43926290227928    4.81785239786451   10.82532655819550
C        11.99013670138298    5.49409658784394    9.70536963673063
H        12.73347979760464    5.06244084750654    9.03805625655360
C        11.55234916792368    6.83456204435324    9.65261122442693
H        11.92996522999593    7.60234590797616    8.98726833534824
C        10.07195138294162    8.19395870481932   11.29723549947308
H        10.17200206562373    9.14954216931408   10.79574170125545
C         9.35206575097143    8.08691276364298   12.46193028322140
H         8.87252793493043    8.96093057862120   12.88025057684401
C         9.22174419609007    6.85589104131940   13.13170448073688
H         8.63507877797276    6.81858242027009   14.03951423303078
C         9.83271757192677    5.71747797418216   12.66242417947091
H         9.75240806054403    4.78228293374737   13.20613595620369
C        10.62940715024298    5.79166555907457   11.50180836323538
C        10.71124822199940    7.05175502534416   10.77710280141097
C         8.15306703356136    5.64032923594896    6.74868168903081
H         7.36459536827536    6.05002451468283    7.38709457905838
H         7.85168900377676    4.62744803092505    6.41782123898189
H         8.22847133479269    6.26636564678653    5.84127291013937
C        10.41317590196086    4.96845298244585    6.62397709167434
H        11.38035484864506    4.91748641623154    7.13787415644126
H        10.55983286855932    5.53229923255411    5.68478017961591
H        10.11074128369630    3.94080748753756    6.33686224158510
C         6.96026366306543    4.84752086935362   11.10629439702589
H         7.42614213581330    3.85652284150715   11.19349795461031
H         5.88450043526309    4.71190118057783   10.88979500023875
H         7.02988788936439    5.35891892244988   12.08544710151212
C         7.11934087646520    6.97035830151582   10.03209268723585
H         7.70148450800739    7.56775067814566    9.31450602644175
H         7.18549118833548    7.44913640763658   11.02773353969192
H         6.05565139341538    7.00534108907146    9.73058094297247
C         9.53792253795966    2.48961857221171    8.82650701884723
C        10.47371196729220    1.66219169368447    8.17042557504911
H        11.47945064640837    1.61429770764377    8.56616482462819
C        10.12242654764473    0.94352172550409    7.04663488464509
H        10.85925491731121    0.31662470021408    6.56367058355734
C         8.83945459013392    1.02288850710533    6.52641478684872
H         8.57039133172408    0.45662760402109    5.64799232923894
C         7.90763780737511    1.84804564252301    7.14250863776992
H         6.90751267217043    1.91905846915737    6.73623422022988
C         8.23876229036824    2.57532788680681    8.26822701052444
H         7.50493668012024    3.21946521691530    8.75788558438977
C        10.87803072265128    0.90163296296693   11.48954928832530
H        10.05597252109751    0.98241533991052   10.77276899133255
C        11.78749193454622   -0.24157431987871   11.02840976604414
H        12.27583294897243    0.01658205335234   10.09285746252090
H        11.18955609857705   -1.13470797954895   10.86651622990361
H        12.55178867306080   -0.47543728362296   11.76569004774213
C        10.26742617411876    0.59140065525431   12.86047855733768
H         9.60932163191923    1.40277974941146   13.16268113732884
H        11.03603274494245    0.46327792685956   13.61902137002072
H         9.68570684692132   -0.32530438465382   12.80529538116237
C        12.72572715928569    2.32895699769525   12.33441890699727
H        12.92984996216068    1.34624395735247   12.76876062816246
C        13.94437953911264    2.73874805548866   11.50489071292613
H        14.08673519415123    2.04960522594437   10.67597639754958
H        14.83913045694679    2.72887186491219   12.12279666907288
H        13.80332864183326    3.73953521120588   11.10836753191044
C        12.51154182490418    3.31425159096768   13.48510097196604
H        11.62992559462434    3.04194334267037   14.05928796881365
H        12.38154393096597    4.32086512617547   13.10050666846012
H        13.37401373817579    3.30079017436637   14.14765520991604

