38
CSD_code = DEFJON | q = 0 | S = 0 | Stoichiometry = C13H20AgNO3 | MND = 8
Ag        2.43983785471977    1.00007425999771    6.90405687540619
O         2.92678289694469   -0.76329291619425    8.43914185289513
O         1.69059931763124    0.81893676821316    9.15166301591813
O         2.21764265053840   -0.78877959597678   10.45390560922017
N         2.27743372055105   -0.25923449859149    9.37672342676677
C         4.77568895128889    1.84829004491321    6.30204487610440
C         4.19702179618121    2.78327195631708    7.07411038817348
C         3.62571379146107    4.09786597513840    6.62751523374606
C         2.10123563118111    4.14918058412284    6.82195417554871
C         1.39079671046184    3.17731649235500    5.92812802305768
C         0.38121515548690    2.39214292769327    6.31924374325223
C        -0.44422309269026    1.51904256862952    5.41149952693010
C         0.37173780399985    0.74566888475451    4.36397856790363
C         1.32979216260558   -0.21040349191130    5.01127613671165
C         2.64021980716829   -0.35075054483870    4.75174474743637
C         3.42547378509151    0.34595961581361    3.68023261867132
C         4.88263619694222    0.64628234265484    4.05148261852715
C         5.07015026524649    1.95106014403215    4.83430616516892
H         5.25268077135440    1.00147557458058    6.79131005973044
H         4.21156543275728    2.64687806794198    8.15395606206193
H         4.07977439611087    4.89004228457684    7.22780867067069
H         3.86221007797595    4.29560415381431    5.58150156239009
H         1.85418239816046    3.94180190969026    7.86589705230774
H         1.75604237378201    5.16030034362410    6.58244581461369
H         1.66992432331186    3.22948261636732    4.88132405652643
H         0.03610399749639    2.45900704413912    7.34712341403530
H        -1.17659740001254    2.14788536022199    4.89473236849477
H        -1.00157022946600    0.80528890051252    6.02139463783839
H         0.88921049535957    1.44090058554148    3.70439549103380
H        -0.32495637534829    0.16772277729022    3.74927117975763
H         0.86015356216307   -0.92437489761187    5.68516001572354
H         3.16492141258582   -1.17813106995352    5.22220231657880
H         2.93642454524492    1.26793493434435    3.36271791755718
H         3.43154663083372   -0.32856770368665    2.81642118398673
H         5.29570512744800   -0.18742781967042    4.62185386578519
H         5.45623322468868    0.72916161852722    3.12550020736612
H         6.12349066386786    2.24200379856360    4.74965901924167
H         4.47779916687563    2.73658000406439    4.36391750286270

