59
CSD_code = DEFJAZ | q = 1 | S = 0 | Stoichiometry = C16H35CdN4O3(1+) | MND = 6
Cd       -0.04112274595871    1.59916988603731   -0.03631206820537
O        -1.24755138213149   -0.20301548038053   -0.25367708613193
O        -0.57230475230290    0.82186505695148   -2.06904681019738
O        -1.86638653949840   -1.01003493390410   -2.19782763139362
C        -1.20099537241409   -0.09437025080477   -1.49733022304206
C        -1.82368902214196   -0.89247248821731   -3.61160931784898
N         0.48659239704553    0.95521964389852    2.17669969724495
N        -1.82400287386586    2.60768278447330    1.08588414612758
N         0.41410783055299    3.72394292733924   -0.99262038117735
N         2.22141051725160    1.32237317772312   -0.54821278631640
C        -0.49294696400271    1.68589927759236    2.99506010377361
C        -1.85942868055573    1.80532653723665    2.31969337879672
C        -1.77315962519987    4.03779448271524    1.42624063281865
C        -1.40352106245631    4.96976866314680    0.27257358139842
C         0.05937806468962    4.88924073570402   -0.16582882163292
C         1.87068306810039    3.71372966978313   -1.19638016504601
C         2.40397661316479    2.33798162619171   -1.59769704403720
C         3.24252898946261    1.50137348964337    0.49551301901103
C         2.98829556962535    0.73992967893156    1.79603558023973
C         1.84129719573584    1.29310658676287    2.64282623378539
C         0.25727714595751   -0.48420308638462    2.34454636623256
C        -3.04928445741749    2.33573367901671    0.32480247737369
C        -0.24235530838608    3.83430226106211   -2.29952661168703
C         2.37765070644786   -0.00445673392800   -1.15511658600931
H        -0.09827604715542    2.68463137161406    3.19936088269849
H        -0.62904748361703    1.18406954226867    3.96342809138246
H        -2.20992380186229    0.80742182330757    2.05148320631713
H        -2.57026211279581    2.23965881675841    3.03750050583085
H        -2.75292166789236    4.34770293695172    1.82200090814203
H        -1.03799217819537    4.18459998156839    2.22072808945040
H        -1.56985348788694    5.98878942870949    0.62912509735497
H        -2.07121585872129    4.82288689687591   -0.57385866781390
H         0.68182733092673    4.87155096246384    0.73477201658770
H         0.30220850364419    5.80842353360069   -0.72188864495492
H         2.15092066016324    4.43496830968481   -1.97714300968865
H         2.35290078368945    4.03454933677799   -0.26955524642466
H         1.86753236112774    1.99530185197895   -2.48406621707491
H         3.46856767649504    2.43471637170061   -1.85590916628167
H         3.31195882461494    2.56368856090676    0.74030781309554
H         4.22062308271178    1.18990154693493    0.09677341254958
H         2.85061181386114   -0.32196997782480    1.60334118964910
H         3.89691343427777    0.83426323385901    2.39498652331722
H         1.93353681121049    2.38400595663625    2.66632708042784
H         1.96696869038098    0.92506138510676    3.67317792781810
H        -0.76076493254755   -0.73588630734934    2.06214667478381
H         0.91490455374950   -1.05553593471916    1.69497910752866
H         0.43143779768265   -0.78683548136665    3.38441808225289
H        -3.05184369288640    2.89947130717284   -0.60625002763390
H        -3.10183629612977    1.27528570819778    0.08200222114510
H        -3.93966891944086    2.61155537006293    0.90348697097680
H         0.07064843137666    3.01767334162920   -2.94367577384024
H        -1.32140447780865    3.76009802005591   -2.19306542217832
H         0.00423075268238    4.78909662932086   -2.78030933649516
H         3.37681243528449   -0.12134318951935   -1.59323514741745
H         2.22971131636108   -0.78390919249372   -0.41031037852920
H         1.63159388465162   -0.13771698507033   -1.93701299426037
H        -0.80167088309207   -1.01192759865779   -3.97766859551722
H        -2.20432004289698    0.08067099029660   -3.92858790282216
H        -2.45535657366588   -1.69040573802934   -3.99379895445213

