88
CSD_code = DEFPOW | q = 1 | S = 0 | Stoichiometry = C35H46AuClN2O2P(1+) | MND = 4
C         2.54706523597828   -0.01900953845365   16.10917301557660
C         3.49860961445071   -0.38429475226678   17.06580187708226
H         4.54492024008151   -0.22431842169705   16.86530321722803
C         3.12376760894777   -0.94446792217789   18.27042860347235
H         3.87502386066479   -1.21796040902452   18.99430739132528
C         1.78167201227513   -1.15356029602759   18.53886828793747
H         1.47372432711677   -1.59575984490812   19.47294193675355
C         0.82995245972981   -0.78571999727999   17.60726167646712
H        -0.21151091412723   -0.94664167938917   17.83816970628385
C         1.19324966799307   -0.21329817822752   16.39224115599578
C        -0.69778991008165    1.21232231398150   16.06935906522484
H        -1.24592179615841    0.81797129849064   16.92619062788926
H        -1.41461468303576    1.56072470343462   15.32837005947219
H        -0.08584464787236    2.05043831045772   16.40138107397987
C        -0.65559348800311   -0.96949418993688   15.06003577483710
H        -0.01646932976705   -1.74082157640613   14.63278428668549
H        -1.37723116872523   -0.64983754983698   14.31087792379850
H        -1.19801510794242   -1.38988523020835   15.90807455343118
C         3.94318123536814   -0.72517029770496   13.62456075846197
C         2.82690870722698   -1.71060383073387   13.25906495526652
H         2.37961801045146   -2.11037402708495   14.17562870308778
H         2.03744819863341   -1.20422109697804   12.69207588272771
C         3.40441755520028   -2.85757372857599   12.42710885290128
H         2.59598025971445   -3.54591355350795   12.16130170877176
C         4.45868420298794   -3.59398162205239   13.25076686676681
H         4.87279484227925   -4.41799752714221   12.66921492479402
H         4.00570823667590   -4.01612924083047   14.15057054105038
C         5.56911166173021   -2.61624201102868   13.62825288108926
H         6.32180987787928   -3.13267328791835   14.23171897903261
C         6.21894694818645   -2.06671127186815   12.36015823440327
H         7.03391007155126   -1.38706759329719   12.61792899675790
H         6.64306575266138   -2.88647782092809   11.77972455850967
C         5.16470396216236   -1.33323125710506   11.53312592983420
H         5.62208950417228   -0.93052725492988   10.62450741447783
C         4.04147618175783   -2.29695876033849   11.15682222411211
H         3.29144516043667   -1.78282471827864   10.55215767787558
H         4.44378230127792   -3.11391933097472   10.55709356889474
C         4.98218799438465   -1.47074341107282   14.46455849907915
H         4.51624113583117   -1.89767609127333   15.35499511636885
H         5.78749327996316   -0.80295331602068   14.77371802894868
C         4.60669228878790   -0.17313783352232   12.36185148574540
H         3.88830560218442    0.40432522378443   11.77440483713174
H         5.43251414482978    0.48685296147874   12.63625345861007
C         4.10120195467673    2.21543890845228   14.89019525034168
C         5.52361592510601    1.95964541730490   15.38913724690752
H         6.10511658599884    1.43092355125268   14.63144455583661
H         5.52177314020861    1.36995204190788   16.30560938762710
C         6.19457561743602    3.30701139139591   15.68817144689630
H         7.20766390392684    3.11397185749297   16.05443764970070
C         5.39896005547941    4.05237205942513   16.75830171375126
H         5.36230552707269    3.46525267013507   17.67862108492572
H         5.88878614416074    4.99904375644214   16.98774239906188
C         3.98329939451310    4.31395424562795   16.24670085278553
H         3.40793099357598    4.84545423008261   17.01105284548528
C         4.04200706290128    5.15163760739966   14.97137484328778
H         3.03228232965241    5.35273830633795   14.60821993364025
H         4.51655069713563    6.11041336363360   15.18222987396400
C         4.84308397646596    4.39927123110469   13.91150769720264
H         4.87796324389982    4.98751570025773   12.98963147944954
C         4.16881184814241    3.05788181485269   13.61143730519352
H         4.73495311311077    2.53878381580865   12.83698046658253
H         3.16419389989750    3.23505509744137   13.22828652171539
C         3.30339597015415    2.97443556472800   15.95612599542677
H         2.27883773010339    3.14124679646178   15.60077151282495
H         3.24875502486438    2.38853136514199   16.87807852255862
C         6.26174255359823    4.14933886218288   14.41707268365713
H         6.75442723202908    5.09873241409375   14.62857310919157
H         6.84767578086232    3.63418721471885   13.65308095571341
C         1.40639247318956    1.98431362435234   11.82606011238786
C         1.75648027254934    1.18143520164124   10.75464123134073
H         1.77694134682366    0.10738801297611   10.85196524928521
C         2.05867594838460    1.74632288225119    9.52766514895031
H         2.34062469638602    1.13756468679224    8.68276609981708
C         1.98135988348878    3.12391789395496    9.39602636325669
C         1.56921635502388    3.92170694771270   10.44938787814098
H         1.47522053739463    4.98706264468406   10.29766955005211
C         1.25535133593670    3.35951718158746   11.68327866894592
C         0.71256093693695    4.24420949739707   12.76011328818073
H         1.13376353812013    5.24430446971680   12.68907395223878
H         0.89498713564811    3.84128033990369   13.75597867945999
H        -0.36780502610878    4.32450588643927   12.63293887504239
N         0.16334901995862    0.18831769776910   15.45324626018778
N         2.31594997178123    3.74088704898733    8.12339808612995
O         2.66731159404666    3.00528292260061    7.23210574865347
O         2.22765513839196    4.94332747992197    8.05353901235566
P         3.06672386119030    0.68526749114355   14.51058172732267
Au        0.96355039721666    1.10802343142434   13.58803803594419
Cl       -1.16483021919588    1.37751903243822   12.73380538044093

