41
CSD_code = DEFTOY | q = 0 | S = 0 | Stoichiometry = C18H14AgN5O3 | MND = 3
Ag        4.70867633366859    7.32931528645520    5.82380068676646
O         4.47832089657613    5.12466428068187    5.15468667963792
O         3.36415347925535    6.59247865839937    4.08400353229345
O         3.19907900508205    4.53201904282387    3.55224515716269
N         4.74747038038048    8.02134195924694    8.07244653714616
N         5.90141412141985    9.31443556632952    5.94554734017701
N         7.82020327083979   11.49312490290205    1.24862472741136
N         7.15420016978642   11.61625925166832    0.18676731460036
N         3.66732719935973    5.39130282360485    4.24499291265995
C         4.33118864793658    7.34112925681372    9.12899989642530
H         3.80151759864510    6.42117688049051    8.92009586002990
C         4.53316560361064    7.76494651262308   10.43354423914280
H         4.16315840851978    7.17980364720081   11.25971043717721
C         5.20680394634393    8.96150850780413   10.64558522028623
H         5.37667690705261    9.32847437396676   11.64671478821046
C         5.65533867429785    9.67181030749625    9.55066381672532
H         6.19418509281650   10.59913356902763    9.67172007530507
C         5.41816865343598    9.16977114812498    8.26529485870213
C         5.88815740656058    9.88032359402502    7.10121589453116
H         6.21742668904407   10.90869797026583    7.25635312759872
C         6.37210826635868    9.92207467004892    4.80795103533655
C         7.32671597955709   10.95545192103081    4.80230751320721
H         7.74651498903957   11.30496817031029    5.73384449061235
C         7.77566319328035   11.48288899392154    3.61972221214897
H         8.51455737865423   12.26938389213231    3.61206074027342
C         7.25763594224783   11.03339321222129    2.39202472257872
C         6.30939455604378    9.98938020291358    2.39580422176957
H         5.94237602451548    9.62831771966106    1.44703098244171
C         5.89704808040089    9.43626367729008    3.57788855792266
H         5.16214963978552    8.63360103977950    3.59150743571074
C         7.84004255146100   11.85999184654318   -0.98227516190517
C         9.21464406095363   11.63541412493362   -1.14258307506484
H         9.78455028297357   11.28134044047822   -0.29632942668314
C         9.80678829996404   11.85532634796990   -2.36733744891313
H        10.86483119275389   11.67848628727824   -2.49388858200392
C         9.04706909126675   12.30181475869237   -3.44051074006440
H         9.51725913144754   12.47203342641331   -4.39754922157554
C         7.68547452974730   12.52329414172649   -3.28949201353792
H         7.09970221036020   12.86750942399132   -4.12868319924349
C         7.07812320003387   12.29785353804907   -2.07164883140137
H         6.02111891450949   12.46189462465620   -1.93085731359125

