55
CSD_code = DEFVIT | q = 0 | S = 0 | Stoichiometry = C12H27CrO11P3Se | MND = 6
Cr        3.02272814732723    5.75179085021901    7.40225976446396
P         5.13870481279437    6.26614592812351    8.06471294919647
P         3.61876486721362    6.73272302545803    5.39845192646620
P         1.09708020577031    5.02451839084527    6.47830672028211
C         2.33443954946683    5.41452145664509    9.05845614702583
Se        1.53028770999155    5.28139935075088   10.57508264644470
C         3.79274046018374    4.13166627917561    6.96831239723988
O         4.29671571337320    3.09795886898459    6.80154212572677
C         2.27588771187856    7.27526118067528    8.09614655805034
O         1.77676439739009    8.16787360600688    8.65377681369686
O         5.78362169020637    7.69409591881192    8.43299684342703
C         5.17724170394462    8.48981863137682    9.43867133561101
O         6.14778601006716    5.82188193211434    6.89242901166609
C         7.55415261135584    6.00985191431513    7.03042410937669
O         5.72424860832456    5.50916946759855    9.38259420690935
C         5.30984242452651    4.22086914984843    9.79500269075747
O         4.55047844573151    6.12066547806111    4.24119245924946
C         4.20614316073106    4.91451069109046    3.58375464759567
O         4.56320932084848    7.95007501673785    5.87233839122041
C         5.25478545711285    8.76476550572671    4.92847774241456
O         2.57980424590764    7.48835607311299    4.38497115212138
C         1.51810233019254    8.26042500054199    4.91392539880144
O        -0.30591871951198    5.83008461220183    6.46293853751828
C        -0.95434499613041    6.11091240956397    7.69618590720886
O         0.45440835666301    3.60238858220314    6.93028574467500
C         1.14784808523062    2.60109986129268    7.65172874083552
O         1.29128678118833    4.85632604495592    4.88469051668794
C         0.24540241059054    4.35842814236044    4.04857054980545
H         5.87625293538193    9.29579799959386    9.66069434884412
H         4.23594060954433    8.91008481371648    9.08303575083835
H         4.99312326388071    7.90572004564544   10.34146498632539
H         8.03338613192305    5.31413590785452    6.34169581683138
H         7.82378713351329    7.03456164847350    6.77309221339634
H         7.87272156404623    5.80135585440938    8.05344100659448
H         5.66282262677502    4.09392595827218   10.81850610414002
H         4.21824383024573    4.14411455393216    9.76845248365190
H         5.74259268749584    3.44736067445270    9.15754970622067
H         5.05453629794813    4.65669878226306    2.94925092922556
H         4.02678572424166    4.11206529352891    4.30161203490950
H         3.31291526549688    5.05262739304084    2.97290858103261
H         5.50996795347899    9.69167246208901    5.44142337447148
H         6.16305811743892    8.26187844409126    4.59590559576573
H         4.62378764297072    8.97598789717580    4.06296541344264
H         1.13635213699826    8.86924751496187    4.09354921043291
H         0.72369018476018    7.61382744180268    5.29068216559692
H         1.86601671279562    8.91207735055404    5.71909599410481
H        -1.92443031416913    6.53935372920888    7.44649826716292
H        -1.09214825487509    5.19780320825465    8.27708654510396
H        -0.37819515772350    6.82525189166881    8.28591446606822
H         0.38940922565488    1.98779000820966    8.13926436443957
H         1.74524210435855    1.98066546136120    6.98123016290634
H         1.79694231877099    3.05257548436699    8.40768096059236
H         0.71422517001443    3.77709544178014    3.25425042981594
H        -0.43374931586525    3.72493818061478    4.62002198774271
H        -0.31088809730335    5.19170318984309    3.61830106587414

