94
CSD_code = DEFWAP | q = 1 | S = 0 | Stoichiometry = C47H40CuN3P3(1+) | MND = 4
Cu        9.22004954240465    4.24665734064593    9.64674002341516
P         9.72336097589860    6.45849316745403    9.69705592786908
P         7.91153472871125    3.63638614354029   11.44729842728295
P         9.49539991949645    2.60864534742258    8.12869908671064
N         8.41308559742550    7.36834022061549    9.09802627706715
H         8.53196444825735    8.04143186586002    8.35234141863556
N         7.19179540129161    5.80632619542108   10.16600876904130
N         6.27615944292690    4.07887309202019   11.27320946584275
H         5.52329316620614    3.42210198812138   11.43254863768916
C         7.16574032873248    6.84378746854825    9.33254059551600
C         5.97938694316876    7.32334540922125    8.78468487448069
H         5.98305567429799    8.16878288836775    8.11701235344056
C         4.80307112468537    6.67749539784853    9.12968323822101
H         3.86388105301149    7.02525903492291    8.72818180661503
C         4.82664310085324    5.57490460013377    9.96897847900178
H         3.92572344141569    5.04597676060310   10.23307544552011
C         6.06240730753654    5.16651806804420   10.46088945274092
C        10.08282285353023    7.29431275260461   11.27345175100133
C         9.07591124519529    7.87927904371918   12.03130261804613
H         8.05586362367156    7.86321675478403   11.67713516431560
C         9.38693400606737    8.48685070891841   13.23411435425516
H         8.60640877764838    8.95201446078489   13.81727721069556
C        10.69527321887283    8.50392318935581   13.68804385062089
H        10.93535818236237    8.98838094145780   14.62214376500530
C        11.69687856674085    7.89886361710261   12.94544430695127
H        12.71620298921751    7.90946470880234   13.30142101793287
C        11.39267313723036    7.28694153995945   11.74455440981415
H        12.16852786925363    6.81408425529549   11.15652253538194
C        11.04353963995316    7.11809634169258    8.63454986577868
C        11.30792339173439    8.48239888763512    8.55192241751745
H        10.73787943384757    9.17808020616673    9.15310151492036
C        12.30875216176761    8.93428229372877    7.71264339428189
H        12.51767761648912    9.99132129069182    7.64580110537498
C        13.04898985751588    8.03304390168950    6.96085948244639
H        13.83016989762218    8.39355426994038    6.30926387873986
C        12.79313225225942    6.67460498611645    7.04817168573507
H        13.37101603906158    5.97125884356421    6.46747578986025
C        11.79164791899455    6.21767155622816    7.88624749490229
H        11.58010295222007    5.15785694404475    7.97026980970776
C         8.41892688455049    4.51152427306427   12.95496933807263
C         9.78538789442211    4.57370329654689   13.21116881845165
H        10.47561175883603    4.12070828942446   12.50858125348237
C        10.24977081126766    5.20043964870448   14.35132265740787
H        11.30887780638054    5.23720843913353   14.55665391878000
C         9.35036414380449    5.78720968603643   15.22706842006180
H         9.71062447165347    6.28013742228958   16.11695949452088
C         7.99096390584391    5.74634825617982   14.96250697453598
H         7.29487145352740    6.20948492014514   15.64573547012794
C         7.52014171941751    5.10725414482187   13.82976632813993
H         6.46024603348611    5.07007755078110   13.62289139563911
C         7.65454715312101    1.92787652727561   12.02544582168559
C         8.14487221866247    1.44149236901570   13.23006282665453
H         8.65333436748351    2.10621798539169   13.91351767769627
C         7.96653274502330    0.10804372826289   13.55539929700487
H         8.33716363420233   -0.26632074202986   14.49775113271383
C         7.31508364625306   -0.74430767921782   12.67996150538141
H         7.17699356159895   -1.78250680653705   12.93996558970967
C         6.84362926793921   -0.26722300070916   11.46670796068209
H         6.34400810883422   -0.93247461311082   10.77871810595568
C         7.02107698375274    1.06133794443597   11.13563008463859
H         6.67362375539580    1.43476522377425   10.17904668996984
C        10.84244861252186    2.55927809494020    6.90812196827908
C        10.82718362836220    3.53208848243952    5.90882498308774
H        10.00109206698986    4.23098793122050    5.86030868224853
C        11.85424098018943    3.59273284014234    4.98758686714197
H        11.83586809313483    4.34075856500492    4.20918226169515
C        12.90773450241996    2.69382398811755    5.06629305626531
H        13.71057316409098    2.74079553254706    4.34650140376310
C        12.93240234676766    1.73724763399882    6.06767378939065
H        13.75433425296662    1.04005604315577    6.12862519337371
C        11.90615315661261    1.66887991785944    6.99436747252952
H        11.92618904672237    0.92327134965540    7.77676281958485
C         9.62964954060064    1.00944547271485    8.98901923685337
C         9.11061616709429   -0.17813861436244    8.48694782391782
H         8.59636736895073   -0.18741755412771    7.53664258943155
C         9.25076403598012   -1.34665915830972    9.21408005501427
H         8.84943143768509   -2.27008531724483    8.82441849511189
C         9.90365571913842   -1.33714997187426   10.43616351183779
H        10.00974263558796   -2.25287362554604   10.99711442222780
C        10.41927880606610   -0.15443483548874   10.94094978118338
H        10.92522958705791   -0.14603410194495   11.89440368349662
C        10.27685066866179    1.01688315828662   10.22230948199960
H        10.66783939913438    1.95226887712252   10.60787439755060
C         8.00985415667487    2.42727699093102    7.09774062761665
C         6.83492267495290    2.99577614079762    7.58022554423703
H         6.86145154414098    3.53985957419276    8.51773842870574
C         5.65742832135362    2.88015833610961    6.86586493466528
H         4.74951226404653    3.32646630243379    7.24417393223644
C         5.65050940493518    2.19815788832584    5.65945961433989
H         4.73370212697664    2.10685287257738    5.09754505606278
C         6.82086206162533    1.64094309914857    5.16790280920969
H         6.81306420615531    1.11719337015756    4.22393843342701
C         8.00174026305921    1.75406755497613    5.87953836503709
H         8.91721760678653    1.33149981562524    5.48887781496819

