72
CSD_code = DEFXUK | q = 0 | S = 0 | Stoichiometry = C23H43BrMoN2P2 | MND = 5
Mo        9.87387284852435    0.56035716483543    6.03955110976779
Br        9.45310640289494    0.86504995965424    3.52743609060486
P         7.94401122974599   -0.80764708509857    6.39421217390929
P        11.44042151931958    2.26500395811577    6.36746803618800
N         9.62844022462330    0.83015129101588    8.07964047601244
N        11.37655233307756   -0.29656993780497    6.08459727383641
C         8.47962920752986   -2.55388650330963    6.85827746523024
C         9.27298023918886   -3.09432227158962    5.66594640525194
C         7.35769071653101   -3.51611134768935    7.24120635505992
C         9.44234867579893   -2.41740880140342    8.04137974056785
C         6.30415484971490   -0.81368916755364    5.42474094153919
C         6.49186544007537   -1.66953849750078    4.17148423320374
C         5.06998112438840   -1.26882642616294    6.20552215565024
C         6.07787599131957    0.63634533219588    4.97343231782400
C         7.34534603243780   -0.05683412456872    7.98443215863202
C         8.49030308681751    0.51434679710178    8.75973152565532
C         8.35553609475885    0.69231446327901   10.12154151751105
C         9.39427274669524    1.23914767914885   10.86445715376660
C        10.54799631110352    1.58535377054238   10.17762743470945
C        10.64744963131916    1.36936240156614    8.81541996519701
C        11.88521581719110    1.74909106417766    8.09072862959207
C        13.13404184924880    2.41992476256194    5.53537229457204
C        12.86662540344427    2.34704665045049    4.03052687322383
C        13.97786563304222    1.20192501438883    5.91673718204584
C        13.92219170172094    3.67858817076801    5.89579709824093
C        10.65272020365479    3.98733753175232    6.57632827110976
C        10.57104609230315    4.65515726126143    5.20216570478275
C         9.21149510686408    3.71434971423453    7.02693983940808
C        11.29751009226432    4.91294106847186    7.60545194041980
H         8.63989820624754   -3.26596857370438    4.79919484918379
H        10.05613347665207   -2.38037797535070    5.39381847354792
H         9.74787455465768   -4.03750666726446    5.93152867794606
H         7.79797240532347   -4.44786888711049    7.59583251068753
H         6.74330845148522   -3.11475779335450    8.04589772479087
H         6.72555144030436   -3.75744636967777    6.39057392418981
H        10.26126056502676   -1.74298360252943    7.78285627127073
H         8.94132538273176   -2.05225410858165    8.93714592086423
H         9.87140559395499   -3.39146778219936    8.27172187789629
H         7.42905730901776   -1.41658763625897    3.67324029528393
H         6.48869243930877   -2.73120712441300    4.40769172355283
H         5.68090132367424   -1.48121974784637    3.46904762632304
H         5.16143499697883   -2.28504480906736    6.57223176882352
H         4.85979715213363   -0.61241237651862    7.04734894242061
H         4.20768071042436   -1.23434912961472    5.53973197173857
H         5.13629176234878    0.70454301123935    4.42997472512503
H         6.01574267589417    1.33030275169189    5.81429631309317
H         6.86570369033144    0.96483957406874    4.29707181226057
H         6.67783478471568    0.76442448448237    7.68980536613195
H         6.76516194067551   -0.75018702183821    8.60097857814194
H         7.43121421535122    0.40601972394080   10.60083807653621
H         9.30340215048206    1.39248095079513   11.92683833440710
H        11.38296963845574    2.02689318391634   10.70026156244469
H        12.44740768344001    0.82995292428704    7.88421045716324
H        12.50353320365550    2.44593369082797    8.66070105737763
H        13.80485866090484    2.39284268699461    3.47914933936396
H        12.37934795623825    1.40007890256697    3.79696434304527
H        12.22995041043392    3.15632904875226    3.68218031039542
H        14.80003886417965    1.09860526735722    5.21090983811710
H        14.40059670818068    1.29771240846284    6.91501521013388
H        13.36631154804935    0.29929933512642    5.86013326753031
H        13.45803549663528    4.58291744105957    5.51279534596905
H        14.04889189016895    3.76617700225389    6.97364324662894
H        14.91420135937469    3.60676830674562    5.44999224822028
H        11.54222223278938    4.99902845195456    4.85828965980973
H        10.16556356675499    3.95760194762539    4.46598777161587
H         9.91026156805210    5.52166148501905    5.24507422194002
H         8.62898068874459    4.63595802211060    6.98992660655016
H         8.72529436371067    2.99123260106129    6.35394086668422
H         9.17489646761682    3.34348978982184    8.05288923636727
H        11.30148003325463    4.45444089541718    8.59297671203370
H        12.31437872776813    5.17911124776106    7.33945738536552
H        10.71778709827413    5.83443457715010    7.66948318551851

