105
CSD_code = DEFYUL | q = 0 | S = 0 | Stoichiometry = C44H50N4NiO6 | MND = 6
C         7.31674383911891    3.32111607147491    3.14426791754318
H         7.97796077898252    2.81141276655573    3.82898153359859
C         7.16474168678993    2.88108436856058    1.84681946122129
H         7.69652103628819    2.00872320774139    1.49822153511835
C         6.33667923932457    3.58995460753193    0.98553514501332
H         6.23915585125716    3.28108375899301   -0.04570279221981
C         5.64101671641257    4.69161640864403    1.42962914103016
H         5.02896109140294    5.25492873415449    0.74217029000014
C         5.73333327653402    5.11722150381830    2.76286993025232
C         6.62520569483349    4.43256336954996    3.61888485460266
C         6.89713621998350    4.87639266136700    5.01903609664901
C         4.00960725185483    6.90654371068673    2.64918860557242
C         3.00177837183680    6.25698183798698    1.94054934905561
H         3.03364163255990    5.18397254436540    1.82966776416749
C         1.94933741489971    6.98153301412590    1.41825954673871
H         1.16964688889907    6.47588793195591    0.86750794774304
C         1.88145652335715    8.34771209315474    1.61792889485884
H         1.05086697381143    8.90733449959984    1.21271491092975
C         2.86313122770680    9.01219532173832    2.34399095648702
C         3.94201918707108    8.29447246495611    2.85494280240910
C         5.04672152019206    8.95503981567181    3.62974095977227
H         4.91387272436717    8.78602246062107    4.69971838349193
H         5.07280960601228   10.02569494078037    3.45443021079185
H         6.00806815125963    8.53222624912194    3.34044487074234
C         2.74137642368465   10.49388008971040    2.55742512559850
H         1.80353572394600   10.85845162853187    2.14598505882553
H         3.55610438094255   11.02592962684073    2.06608541318895
H         2.76834036912863   10.73568999392219    3.61877760369154
C         8.21479480717873    2.03936168117391    8.54902203832723
H         9.28274711827197    2.09189544309439    8.69785700067763
C         7.52159856448591    0.92232827395274    9.00333957886566
C         6.14950772676534    0.88236655072598    8.79093554734441
H         5.56753020103323    0.03563985687682    9.12533760243350
C         5.54573823427323    1.94233143402761    8.13790536660838
H         4.48373139327976    1.94477702649902    7.94817122559760
C         6.32187655466920    3.00977711754934    7.71930724586616
H         5.86364024568411    3.83416860951081    7.19270930631624
C         8.24585665335037   -0.17684315591766    9.71248159093224
H         9.26760091518969   -0.25909591442584    9.35145808961941
H         7.73854222392853   -1.12845090702611    9.57388723017686
H         8.28227919859900    0.03498030394922   10.78137082242430
C         6.23813307524560    6.22636885596110    9.14870410552913
H         6.87473031665975    6.24700056616402   10.03276873159429
H         5.58559976589016    5.34767723503759    9.21204317401546
H         5.61314387912501    7.12803223502295    9.13690022554659
N         5.06925033099395    6.21484491806669    3.22378479903408
H         5.30817109963580    6.45010490486560    4.18764902883623
N         7.63651135074006    3.06129290407060    7.92540743233633
O         7.91054736121399    4.36218550616086    5.56295951308432
O         6.15020630885642    5.72188409054735    5.57410401876124
Ni        8.70471716505539    4.54678732781404    7.30132407814996
O         7.08032717910598    6.18912973185407    8.02636057646884
H         6.54389229994771    6.10730082719519    7.19644672339897
C        10.09271455373609    5.77240277499510   11.45844780214811
H         9.43130688548264    6.28203976840939   10.77386581749311
C        10.24480622347534    6.21235168708125   12.75590930228341
H         9.71294685610241    7.08460926736220   13.10463159361342
C        11.07311748492430    5.50356680914408   13.61703020902847
H        11.17082765614669    5.81245214068557   14.64823917629973
C        11.76897476036074    4.40210854108307   13.17273594339664
H        12.38135389537552    3.83893783130558   13.86002321402614
C        11.67652082940063    3.97657033544134   11.83947987733447
C        10.78442168115818    4.66115138966797   10.98362802922474
C        10.51268396791331    4.21773225556312    9.58330535055364
C        13.40052458901277    2.18748518732777   11.95284487872630
C        14.40839911039470    2.83708964121128   12.66139237917045
H        14.37645689035452    3.91009118143716   12.77237761682483
C        15.46097636616075    2.11259273338048   13.18348276270780
H        16.24065675598013    2.61825509592832   13.73424378239961
C        15.52895289149447    0.74643071092774   12.98369483916978
H        16.35959310531710    0.18682995533011   13.38885208714431
C        14.54723108292693    0.08191377138852   12.25771769283725
C        13.46820648287998    0.79957475792643   11.74697467210758
C        12.36353799055607    0.13892621850600   10.97226952542396
H        12.49648590909396    0.30781104490264    9.90227673247089
H        12.33746069079300   -0.93171498857421   11.14779113072876
H        11.40223428999532    0.56187821610554   11.26153630726076
C        14.66904186775057   -1.39974762719502   12.04421387564331
H        15.60693553679962   -1.76428450848573   12.45555879728764
H        13.85437641577642   -1.93188016925646   12.53557043777453
H        14.64201748928796   -1.64146109366782   10.98284494471629
C         9.19478457193276    7.05423202659098    6.05358691222044
H         8.12684574986729    7.00173618995451    5.90463786985058
C         9.88804557375787    8.17129647655911    5.59943473258634
C        11.26010108609813    8.21125865773182    5.81205000652789
H        11.84214225581115    9.05796537597977    5.47768486797622
C        11.86379037887330    7.15123105420473    6.46504512284182
H        12.92577859445974    7.14875287582242    6.65489019857431
C        11.08760287144192    6.08374228757532    6.88344688815566
H        11.54577697847753    5.25934086589548    7.41008428256970
C         9.16391285399627    9.27052409236444    4.89024608246782
H         8.14204118985163    9.35260377972749    5.25093228774027
H         9.67108018614053   10.22216424645878    5.02918780175262
H         9.12786632567920    9.05890463447258    3.82130647267382
C        11.17117736034832    2.86735046423966    5.45369114456879
H        10.53449133145897    2.84677921671419    4.56968147458913
H        11.82371903000056    3.74604562209095    5.39035056874712
H        11.79616695823420    1.96567972715046    5.46533592146862
N        12.34080293703609    2.87915663364301   11.37836793865784
H        12.10179427718196    2.64390487982176   10.41452990826619
N         9.77298363958429    6.03225115526829    6.67720978118087
O         9.49896850259085    4.73160102234217    9.03962046969537
O        11.25928954942785    3.37190114991519    9.02833469645770
O        10.32911242297795    2.90446946638276    6.57612262576753
H        10.86561934488453    2.98638406624923    7.40597659797293

