63
CSD_code = DEGBIB | q = 0 | S = 0 | Stoichiometry = C31H21N3O5S2W | MND = 6
W         4.94640024417328    7.23357726652751    0.97239256037784
S         6.95931179806311    2.68318907230612    9.66917094652804
S         7.98286110997842    0.20967475974951   14.79335174267299
O         4.61910727568785    4.60845420247610   -0.71918365409118
O         5.24411527793800    9.91094207071293    2.58584502258587
O         1.95438083122210    6.97451072256185    1.88772134559387
O         7.89085858279096    7.57252724363179   -0.06304651522442
O         3.96846976332986    8.88729622359770   -1.49404866384424
N         5.64494809543128    6.05335983030767    2.73588469668810
N         8.63048571460046   -1.04156357370803   17.41556240105738
N        10.80605573598583   -4.10657508878814   21.51935994475402
C         4.74711735082390    5.54655944314808   -0.08139648955674
C         5.14479473805644    8.92284907982416    2.02290352019130
C         3.05207029291664    7.04881203076522    1.58292541242911
C         6.83272934554982    7.43164107483812    0.34187072707068
C         4.32656716957804    8.28165776512863   -0.59147395044805
C         6.59334319178780    5.11713810668368    2.62162907144537
H         7.00031163385322    4.95995748956321    1.62911582731053
C         7.06082568086754    4.36629186807568    3.67759603414877
H         7.82948606065215    3.62501007720447    3.52463157191218
C         6.52563850914842    4.57383628126055    4.95604026003872
C         5.53007060980722    5.55332494127114    5.07542094433796
H         5.08184229745635    5.75615192944378    6.03544386368642
C         5.13473747702520    6.25200310867042    3.95636705905531
H         4.36771979464573    7.01343244101576    4.04174347797783
C         6.96048233744380    3.84107509201062    6.06517193406449
C         7.34801747348477    3.20049064279888    7.02023265153672
C         7.76352623480433    2.48854630578204    8.13113095555907
C         8.79701185659385    1.57911614797198    8.22159556825602
H         9.41505443777438    1.32194404814730    7.37962789456258
C         8.94564908316477    1.04767575308360    9.50019385275947
H         9.69694227706731    0.32500954330009    9.76459237852581
C         8.03008821408287    1.53195555085471   10.41615868879913
C         7.92597562293714    1.17761775024825   11.78668000142845
H         8.65789477154980    0.46776893836679   12.14972192121031
C         6.99032822199813    1.65804986026127   12.63724831676752
H         6.25368443943770    2.36367134401081   12.27127768463314
C         6.88017158201772    1.30831588917095   14.00726529633586
C         5.92359580673482    1.76414344896845   14.89692401433124
H         5.14776101470540    2.45278969761300   14.61144472121491
C         6.06898731746031    1.24467377443645   16.17964370934824
H         5.41997053366042    1.48327308257876   17.00397694863999
C         7.14220218344326    0.38344923799184   16.29977330838858
C         7.58259398121124   -0.31146427730320   17.46004627212698
H         6.98138498218164   -0.14507087602435   18.36410823306683
C         9.10152089699754   -1.77929288357081   18.46748041334503
C        10.45424171840011   -2.14100592552934   18.43550610240695
H        11.05453707488352   -1.79327765973529   17.60893254161882
C        11.01833931024782   -2.89253196286397   19.43635855155894
H        12.06646409915948   -3.13326335782041   19.36904315465418
C        10.25011522809723   -3.35789049784354   20.51844407818855
C         8.88434354082067   -3.02596076986057   20.52720495921147
H         8.24409603462473   -3.37690631467039   21.32024122665151
C         8.32932136372036   -2.25039091871311   19.53766597651844
H         7.27089411263568   -2.03425261345642   19.57221696186013
C        12.21544570508203   -4.40807054061489   21.51243339055619
H        12.48439222527623   -4.90829742510145   22.43974102128339
H        12.80651683742779   -3.49140014143891   21.44090921900166
H        12.48534794178961   -5.06403199669980   20.67732061340491
C         9.97810895714674   -4.68138368975122   22.55001099120060
H        10.58279026751949   -5.32100745196508   23.18817911936615
H         9.17804082117150   -5.29142830137594   22.11980918925449
H         9.52661291189190   -3.90469686959310   23.17576098164410

