81
CSD_code = DEGCOI | q = 0 | S = 0 | Stoichiometry = C32H43O4PPd | MND = 4
Pd        4.15354979390871    2.20814385900699    0.09624950990094
P         5.37514250303597    3.25269086630612   -1.45497508218764
O         4.85390409286435    3.42061376925488    1.54885073815211
O         3.09980917414808    1.01507765282206    1.46321914505242
O         3.36161304407085    0.83557022815958   -1.14954964705753
C         4.56797020943001    4.39248123789741    3.59298725582950
H         5.64378705387842    4.25796542085808    3.63838904365040
C         5.85179526592343    2.04530547938427   -2.78903274709932
H         4.86893142113634    1.73677124011938   -3.17166988138654
C         4.36466726402572    4.54444398981360   -2.32889279857543
H         4.87269703260013    4.89275369448929   -3.23697052726953
C         6.84962690527327    4.13616499497400   -0.75293567428758
H         6.37930257004067    4.79533032312949   -0.01003077809261
C         4.12043837126057    5.71724912145633   -1.37625463868218
H         3.70237758624810    5.31535943937239   -0.44802915360665
H         5.05701858797179    6.22753413976664   -1.14435551826994
C         3.02442513964192    3.89343882657437   -2.68895545297765
H         3.17538424119120    3.07572907855517   -3.39702309706329
H         2.58852918961955    3.47701880282206   -1.76814358247849
C         3.13792300738656    6.72262618257577   -1.97145870483191
H         2.97859532091613    7.53697936688826   -1.26203479213855
H         3.55955783379847    7.15205407806292   -2.88500629679683
C         6.49658767166897    0.79416270069447   -2.18908301156654
H         5.92033780772260    0.46806499820539   -1.31218847102892
H         7.51648214925822    1.00955579562350   -1.86761374216897
C         7.70204447516975    4.99034974247286   -1.68711808740797
H         8.26021354886106    4.35599059959264   -2.37589040848682
H         7.08028464620280    5.66450443872409   -2.27860803364179
C         2.05217664325346    4.90796067566764   -3.28313744516291
H         2.46255972409818    5.31353159090588   -4.21256810798661
H         1.10910540015070    4.41287523512087   -3.52137756948598
C         6.68843384193918    2.54278660555336   -3.96376827734397
H         6.26737961707968    3.45680025136685   -4.38598720030094
H         7.70632876616501    2.75621412664360   -3.63531802158791
C         6.73772634131739    1.45196887090042   -5.03437448912163
H         5.72660906337498    1.25691518664079   -5.39836937124311
H         7.33813795653488    1.79119718669980   -5.88139941398068
C         7.73709031982728    3.16711134218707    0.02847460102521
H         7.10736031861360    2.52904694659028    0.66105977640221
H         8.30032796432211    2.53365311991807   -0.65889634836020
C         8.72290819636429    3.96447154173961    0.87815110513458
H         8.16931123970795    4.57221240566461    1.59615296988633
H         9.36855509993438    3.28616957994889    1.43936590917458
C         7.32847862431450    0.16438375390930   -4.46449354309382
H         8.36632276263028    0.34324909316373   -4.17290035544846
H         7.32885288441972   -0.61248578719158   -5.23157211805965
C         1.81427106496653    6.04014978056270   -2.29193139941247
H         1.10568432075523    6.76237095142107   -2.70247359542463
H         1.39455284735868    5.62713523985551   -1.37331059921109
C         8.69329402659328    5.79712514519129   -0.84745896936540
H         9.31822791484508    6.41092906203339   -1.49998788075707
H         8.14282931091595    6.46761568031748   -0.18381073076584
C         6.53771924487634   -0.30688842520960   -3.24543903627734
H         6.99780387256896   -1.20648731628715   -2.83185992304900
H         5.51845497639201   -0.55941745344715   -3.54427962695196
C         9.57269920153792    4.86908833059094   -0.01231162468614
H        10.25413839064438    5.46138725070075    0.60145479875643
H        10.17897014618566    4.25138729296559   -0.67953906338201
C         2.33760158759883    0.19101453163493    0.86804263196981
C         2.49906210380242    0.06734692562677   -0.59173572986650
C         0.82528081513493   -1.75471697276673   -1.14172487164358
H         0.46645991268758   -2.31864704460768   -1.99504486512064
C         1.41506577376994   -0.53486560685890    1.65486568412175
H         1.46279958287642   -0.25729403249903    2.70200883316211
C         1.81317998305375   -0.83458089317331   -1.42436308628795
H         2.12511396415567   -0.76312310258088   -2.46053537595789
C         0.22259985411362   -2.05570313568629    0.06845187180569
H        -0.54764639771100   -2.81550044794196    0.04462806390793
C         0.49464624468842   -1.49664581318418    1.31092852273374
H        -0.10011599045977   -1.87979728596774    2.13223695081754
O         2.31167622566124    3.81014349090219    0.77641878487081
C         2.60112087985249    4.07419806099716    1.96900833164473
C         4.02489188259842    3.93445017171769    2.38450615892366
C         1.55949061534354    4.49713724751109    2.84075969663668
H         0.59114577018087    4.44655100499145    2.35445215046183
C         3.98025102698279    4.94476126231909    4.71727415351358
H         4.67157774264412    5.20222532505423    5.51200775593185
C         2.64745593481201    5.18176870634165    4.98371062264519
H         2.41188754198165    5.58862107288600    5.95865726386222
C         1.56845376695915    4.95568666686762    4.13142911531842
H         0.59579519033694    5.20238253665837    4.54334732114773

