49
CSD_code = DEGJAB | q = 1 | S = 0 | Stoichiometry = C20H22N2O4V(1+) | MND = 6
V         8.30122279956978    7.79717520156795    5.65423372315248
N         6.84452067082142    9.05188033633435    5.36019367872588
C         5.79628168304500    8.44037147777639    4.76977488165996
C         4.76299582929814    9.18433011000257    4.19207624580619
C         4.79977434319957   10.56286852641013    4.26379027088844
C         5.85839126223216   11.17339844209337    4.93200454173378
C         6.85804310618838   10.37618419464194    5.45573612116578
N         6.81252987256286    6.50622545207613    5.64884371685488
C         5.79083053692560    6.98738296994206    4.91488252208329
C         4.77842992492637    6.13749999191237    4.45761444262390
C         4.81384631964876    4.80059670513039    4.80463863632088
C         5.84566969927219    4.33774095693955    5.61598886519194
C         6.82920476607197    5.23054395255497    6.00418574480084
C         9.07326642023942    8.43275727128019    8.24158253414218
O         8.36358791392314    7.96278943008162    7.28290493442339
C        10.17681435612492    9.19377784019386    7.93117135353829
C        10.50979290096786    9.48932122621090    6.57342850174512
O         9.83495253151886    9.10328429408125    5.60031809368284
C         8.66658879323791    8.12544118560983    9.65367837786146
C        11.73014395587298   10.33962330947302    6.32673363788314
C         9.32676798062495    7.28511922182362    3.11454414964415
O         8.43035526808793    7.60075480918597    3.97534395041876
C        10.47022273397284    6.62564610354936    3.49946886470181
C        10.67336147150864    6.20139220214132    4.84770837469748
O         9.87649486171990    6.42372204612654    5.77425084086794
C         9.06662322353287    7.64312435153986    1.67737191913205
C        11.91763531111563    5.39943429366487    5.13227511546827
H         3.94332487715763    8.68925360554911    3.69700357432570
H         4.01658468000771   11.15571194653626    3.81824855980169
H         5.90924715092138   12.24588973816482    5.02644853829746
H         7.71979215439360   10.80659872767412    5.95480340848197
H         3.98118236667586    6.51551619817486    3.83832551883726
H         4.04664030029702    4.12664496661923    4.45621994567427
H         5.89143829688106    3.30488638833547    5.92042580816998
H         7.67799548442799    4.92197115514603    6.60494702291836
H        10.80322119885383    9.58354611495415    8.71670491838531
H         7.62485284123392    8.40826773547740    9.80469986456723
H         9.29321674399368    8.64768859189576   10.36839689013944
H         8.74451925521974    7.05163457019496    9.82438014937889
H        11.85849417192490   10.50421829907375    5.25988401496798
H        12.61252624043774    9.84333032891370    6.72457649734408
H        11.63102076231884   11.29726854736820    6.83299527503047
H        11.21087124386252    6.36350577834521    2.76153472155224
H         8.09046354996160    7.26378903086606    1.37521318682357
H         9.83245962002194    7.24239773187748    1.02226188617817
H         9.04284152298568    8.72885480530557    1.58055964329259
H        11.95922122791357    5.13565194730072    6.18610312067486
H        12.79856185615600    5.97993154390962    4.86736288768721
H        11.92347591814407    4.49305634597403    4.53036052825583

