85
CSD_code = DEGKUY | q = 1 | S = 0 | Stoichiometry = C39H33ClN7NiO4(1+) | MND = 6
Ni        4.50491702726588    6.13693533729828    8.66464164960819
O         2.86175324016087    7.04469785391919   10.22038274671234
O         3.06428291095815    4.96062036869168    9.56641726044122
O         4.14154255806113    0.86982929013589   14.07285322650155
O         4.37671297220367    7.28587266153454   15.51678871523188
N         5.60803452509709    5.58131535975813   10.07102630106025
N         5.62992188906788    4.66994324318249    7.34407325566073
N         6.17577306647147    3.41857952770940    9.25693120505430
N         5.61300792574273    7.77698412218787    8.19970768069393
N         3.22821368505298    6.69770248818621    7.45005627176759
N         3.61355880725329    8.97320737081570    7.93446698641662
N         3.05861598759698    2.56861476428889   13.02555683815329
C         2.52226320548353    5.85665396490262   10.28165598816185
C         1.44974797341288    5.39911460342334   11.27481744163662
C         2.12673510506877    4.44964022663589   12.19900669986858
C         2.18445085950030    3.09372815527546   12.06966821213279
C         3.65352172759628    1.31851944278363   13.05916112974134
C         3.77843925972039    0.60318642895911   11.75853027285881
C         4.02678984026164    1.28811664377035   10.57089983671112
C         4.23992919710551    0.58978711256691    9.39794595535907
C         4.22464202546957   -0.79816232973229    9.41008173275178
C         4.00336625261880   -1.49374328690366   10.59025567238199
C         3.78910700860921   -0.78982819797254   11.75957050478840
C         1.31796485776896    2.24256033974993   11.20569834675324
C         2.96472676340130    4.82044330894202   13.30427176894718
C         3.48770352160276    3.62451225966168   13.83531690038193
C         4.30456821203433    3.63360031970473   14.94850430730090
C         4.59618423459184    4.85415177340711   15.53480698017086
C         4.09579493177324    6.05014066654048   15.01084027579877
C         3.27766165244047    6.03811599595487   13.88444821708332
C         5.06474809472184    7.37937359961825   16.74234860910532
C         5.61588202062062    6.43851860177837   11.10207200959598
C         6.03964152713564    6.10315257397327   12.36779847288824
C         6.44786087297836    4.79366939920068   12.60360613810939
C         6.45602259756031    3.90920908213181   11.55246430682214
C         6.05453638909210    4.33450536049057   10.27364779950010
C         6.05594765145417    3.53139998957952    7.88962889095676
C         6.42241449928180    2.42214457034994    7.11004128131329
C         6.34881496726163    2.51755613809572    5.73889935184997
C         5.92712536712734    3.71669190015579    5.17087882143510
C         5.58305298037868    4.75350426175263    6.01183229287741
C         6.94188030121022    7.78563540959364    8.33983116866804
C         7.66951578712243    8.93729590104154    8.54474217665067
C         6.98604370293043   10.14843640895619    8.62458786193707
C         5.62205628575746   10.15589765945493    8.44435724057140
C         4.95747683045752    8.94189030567665    8.20916779840085
C         2.80887605466163    7.96843508587426    7.45371142937927
C         1.55430276090334    8.32139662592754    6.93520200855561
C         0.75276810981676    7.34973484676444    6.38166448031315
C         1.22350868262770    6.04112140229380    6.33314360262171
C         2.45432941778935    5.76367223292473    6.88715230838084
H         3.16890226591366    9.87611685856125    8.02823754457181
H         7.42930634212658    6.82238186106130    8.27617895944523
H         8.74038483846242    8.89469775740171    8.65028195987146
H         7.51769363284391   11.06860633738762    8.80909017639450
H         5.06202468416763   11.07727287357469    8.47412706412571
H         1.22972606803157    9.34902371232614    6.98171404749416
H        -0.22088974251566    7.60070612752018    5.99145537407354
H         0.63654200067297    5.25244199978623    5.89355465102209
H         2.83970941719949    4.75225449825198    6.89965452668692
H         1.07019022080171    6.27356061062117   11.80109519664921
H         0.64683392274318    4.90674815117651   10.72652097870884
H         2.90114104607661    6.96838273517575   13.49193013749700
H         5.21673169300523    4.86369881568580   16.41608260543346
H         4.69181974455589    2.71785416147743   15.36366038973967
H         4.54661241146928    6.83482276234965   17.53662029746317
H         5.08377050484396    8.43996961180140   16.98756150811115
H         6.09297133963235    7.01146023276272   16.65877421388577
H         4.04473714315741    2.36800098651642   10.55791889196278
H         4.40277434029624    1.11542192183752    8.46991031580533
H         4.00209419599920   -2.57196008648234   10.59132349818972
H         3.62412013627759   -1.31093210672408   12.69012691703600
H         0.29444448886906    2.61241257542938   11.26275330871765
H         1.32573805441602    1.20831211044436   11.53762855901407
H         1.62727747535825    2.27880016827506   10.16189443799985
H         6.46561464071384    2.50008330008144    9.56870161359897
H         5.24666538370968    7.43710454557353   10.90303215094319
H         6.03161229695167    6.84000014368363   13.15177542566689
H         6.75178875647602    4.47658809382010   13.58780665082713
H         6.77088537564936    2.88660579937539   11.69510935928258
H         6.76478427197540    1.51506441352854    7.58399266888718
H         6.62219778312375    1.67918917552010    5.11746739053870
H         5.86877164059676    3.83552017759528    4.10201649760517
H         5.25899873934470    5.70612880649934    5.61426918071416
Cl        4.50068876275444   -1.65782030291608    7.93857307199205

