35
CSD_code = DEGNOU | q = 0 | S = 0 | Stoichiometry = C14H14N4NiOS | MND = 4
Ni        3.53048945994559    3.86887983905567    9.97167322221920
S         5.22700273254621    4.62338962453717   11.13273118245627
N         2.42430525293792    5.25911745053102   10.67127195138309
N         7.52340483639301    3.30500808557869   11.13030285542470
H         8.19868598446971    2.71432711653405   10.67516620014549
H         7.85954975996951    4.14272545997104   11.57299317918128
C         6.27341474104942    3.34554760799900   10.60079263563829
N         5.89718502243572    2.43300222946093    9.77098145518267
C         2.97654881909539    1.40710440479696    7.87213296643873
C         4.27149117004882    1.52051341256860    8.48365674404132
N         4.60851105053768    2.47979851358460    9.32105190526887
C         1.93925232245072    2.34212666528345    8.16186081731484
C         0.62760857551691    7.15841344362037   11.59200373601085
H        -0.07152819197082    7.89873829701548   11.95091001217881
C         1.46926119404469    0.24364657720345    6.35973624615051
H         1.28800386540644   -0.56287321273960    5.66528623791651
C         1.06886611842706    7.17662508911309   10.27882340818583
H         0.72493206063991    7.92856725413224    9.58625640683676
C         5.30090468307022    0.47792764840022    8.13890722573935
H         5.52927609238717    0.51566450452909    7.07571083651007
H         4.92365450389528   -0.51249758711026    8.38366898113356
H         6.20770418882767    0.66555988006990    8.70469667827756
C         2.69462217085575    0.37050598806530    6.96142547478496
H         3.45933319202091   -0.34950046415822    6.71929695236974
C         0.45556521964627    1.15938470973007    6.64574547976014
H        -0.51086812222236    1.06019741878681    6.17262569824585
C         1.96395861039715    6.20808697135396    9.85836975021991
H         2.32360843267363    6.18899259943709    8.83639639031927
C         1.10585089294706    6.16724576943493   12.43397088099076
H         0.79122626153133    6.11130198796409   13.46406653978848
C         0.68617359717760    2.18215964045992    7.52428534806960
H        -0.08133114691568    2.90382169341225    7.76219746260095
C         2.00314259338342    5.23926208817964   11.93491863288807
H         2.40514990756179    4.45863829714526   12.57070487165769
O         2.07574414881876    3.33379099605505    8.97468163467037

