73
CSD_code = DEGPOW | q = 0 | S = 0 | Stoichiometry = C37H20FeN8O7 | MND = 5
C         9.89860405689953   -3.52434601760551    5.09560067125248
C         9.94391897096458   -4.49435571773884    4.06872330208264
H        10.00092015372418   -5.55568135901075    4.21171982290889
C         9.92516553955872   -3.81452941724577    2.87629488362862
H         9.97039285237381   -4.23793712929195    1.89178348054573
C         9.86134536991644   -2.42342512371720    3.17419777324661
C         9.90678020978189   -1.30507175663013    2.34049063168072
C         9.99382488972037   -0.00547324380473    2.86436340793047
C        10.02967578009899    1.19852532862210    2.09791344107951
H         9.96038070220840    1.25381796023715    1.02937052897903
C        10.14633204319607    2.23582083256206    2.97017344288100
H        10.18848564389137    3.28132435219989    2.73670270233956
C        10.17661669022988    1.67990296661160    4.28382083952835
C        10.28300453681645    2.39387558317209    5.48010420567300
C        10.30109797505230    1.80351133005508    6.74715644257595
C        10.48776515798641    2.48305951949107    7.98740458095174
H        10.62377489133396    3.54033326069409    8.10211829392887
C        10.46729084841302    1.54077504016710    8.96846839589602
H        10.56028003299464    1.70163279921479   10.02438144525064
C        10.29399011721084    0.27054452151556    8.34048844791847
C        10.25878665708792   -0.96891773788271    8.99901205475966
C        10.11882897892036   -2.16401200623278    8.29287191514098
C        10.21206505926903   -3.51866788393654    8.72238395079560
H        10.35298585499521   -3.84071007137081    9.73581895668383
C        10.11456555821343   -4.31516495810907    7.60870263323445
H        10.15863282740508   -5.38596157728186    7.56876863885482
C         9.96754117320943   -3.45313284404738    6.49828555702919
N         9.84753402933776   -2.28197474980467    4.53478797602432
N        10.06232128052768    0.31220079045942    4.20129819910308
N        10.18607402863801    0.45420486459787    6.98117010571206
N         9.96964249070161   -2.16002003726601    6.93272810334232
C         9.90481347585887   -1.51290632787518    0.88517785498496
C         8.88490191800794   -2.25956749370278    0.29180968713714
H         8.08844388273763   -2.64819458940983    0.90748272854957
C         8.87896103995219   -2.48222487622031   -1.06912550642498
H         8.09397605390649   -3.05059796259918   -1.54414599970261
C         9.90637518440898   -1.96177025104285   -1.84799510944425
C        10.93482365923905   -1.22264026370924   -1.27437908089904
H        11.72285093069139   -0.83967592500778   -1.90474246024208
C        10.92913224211367   -1.00035763524235    0.08664149704787
H        11.73270647246210   -0.44532501703555    0.54579099629294
N         9.90838515855390   -2.19557480098205   -3.26903211491001
O        10.80608296244075   -1.70256772233261   -3.91871727195692
O         9.01414530088553   -2.87374940553257   -3.72874580849945
C        10.39333953802967    3.86397755202648    5.40362611186568
C        11.46335356048166    4.46083757816054    4.73630948363295
H        12.22094602201956    3.83809283778698    4.28579433438898
C        11.56699812699993    5.83476213061159    4.66623801723526
H        12.39123524359610    6.31304646734202    4.15945346769534
C        10.58926067572830    6.62154717251813    5.26391008389334
C         9.51525588550059    6.04462686303316    5.93186932446199
H         8.77062718534050    6.68275048355022    6.38264609049876
C         9.42392139751805    4.66986622962913    6.00169863688572
H         8.59122152168268    4.20743598583989    6.50902415265405
N        10.69141057036349    8.05713532680272    5.19056818949991
O        11.62409824591009    8.52289994589554    4.57120945615321
O         9.83784452174709    8.71062658050742    5.75112826704440
C        10.42251460713450   -1.03292705145972   10.45920209826320
C        11.54647737401494   -0.48364609854226   11.07892566719008
H        12.30464568998870   -0.00679928562338   10.47693056557927
C        11.70624087308741   -0.57214148833498   12.44591456600679
H        12.57244598487189   -0.15906221840183   12.93991696143776
C        10.73380110345928   -1.21315718816095   13.20509889618474
C         9.60968176209053   -1.76974515278007   12.60552797143360
H         8.87227460518408   -2.26060801154693   13.22212718467995
C         9.46150139182840   -1.68132490837949   11.23721923763771
H         8.58995499696500   -2.10057680403516   10.75855549205787
N        10.89684208611553   -1.30675973301173   14.63307003726977
O        11.87675561202280   -0.78583376267714   15.12237302573137
O        10.04539389521344   -1.90216605993512   15.25852813709234
Fe        9.58625188126459   -0.81804129736944    5.67909714987491
N         8.02590858198225   -0.64484899362017    5.74288378416689
O         6.86757437791732   -0.50946234775743    5.79322936659042

