55
CSD_code = DEGPOX | q = 0 | S = 0 | Stoichiometry = C22H24Cl2N4OSZn | MND = 5
Zn        2.23802365141881    0.58207891969817    2.95460754182369
Cl        0.50616867563666   -0.07074301426937    4.14746987515514
Cl        2.64999840903149   -0.32100094561844    0.93828719013759
S         3.76235207423326    2.40092816247371    5.71789940985400
O         6.82777738638100    4.53504224740263    7.30564526317520
H         6.33686700608444    5.13439988770101    7.87903492201058
N         1.48043572471144    2.43504367229637    2.11500074419818
N         4.02259221099359    2.04261924159369    3.01839092265571
N         3.80782553077833   -0.43002234956160    4.07129325296606
N         4.68644328872157    4.13986177432995    2.28536786183853
C         0.36483247895847    2.40372684473354    1.40128112522889
H        -0.30339051454463    1.58057658424799    1.61148598199428
C         0.06965689147925    3.36283154427287    0.44700374498548
H        -0.84792773478507    3.30407944990554   -0.11554843536882
C         0.98115736713591    4.38360060045300    0.22948506293389
H         0.79307912644100    5.14310833907103   -0.51457817448601
C         2.14285606288121    4.41834688419789    0.98414507206749
H         2.87704121290609    5.19683606388413    0.85009124640049
C         2.35159740862927    3.41784852074118    1.92142360342624
C         3.56268625098369    3.40839198573075    2.83452879356081
H         3.23810527724339    3.81664378551563    3.80098538369203
C         4.71640070924881    1.78104545237302    4.26934058188777
H         5.69739170679041    2.26977897359853    4.32216818482757
C         4.83995427888747    0.29925709496560    4.47755487025300
C         5.93557771489200   -0.26979108880435    5.11373403677573
H         6.76207822675197    0.34577062037278    5.43529990800749
C         5.94265345283333   -1.63889710116852    5.32362774150926
H         6.78292903624745   -2.10935481297328    5.81170854676509
C         4.85738156938401   -2.38883676154543    4.89852779928302
H         4.82456000170529   -3.45584704251761    5.04665200066305
C         3.80656649854056   -1.73694436143465    4.27391940834815
H         2.93197106513877   -2.26518664728157    3.92253495718706
C         4.91383469555727    1.85202086644226    1.87092139123596
H         4.29837166285484    1.60766454327565    1.00348840006840
H         5.59985644910547    1.02394612985148    2.04122347752095
C         5.62238392800061    3.20143493362951    1.69982177080227
H         6.58332204666151    3.21722839456213    2.23192358445036
H         5.80662236305346    3.42912899364324    0.64623047658313
C         5.04322688208425    5.40659959343838    2.69556593109995
C         4.13730200700726    6.22411149636648    3.38182451356739
H         3.13462705768172    5.87911900102679    3.58482287175892
C         4.50332663815791    7.49213865602663    3.78967763118721
H         3.78637053093083    8.09974901360685    4.32220240003498
C         5.76627556958821    7.98796365078313    3.51634362945584
H         6.04677782748732    8.97875902948648    3.83759137509664
C         6.65745070736991    7.19977867043789    2.80903816364662
H         7.64113084715832    7.57659295611300    2.57085895291647
C         6.30657875775497    5.92855267236831    2.39880174645791
H         7.01708019737765    5.34449748085596    1.83609444569661
C         4.77650359195903    3.84298827877000    6.20775335576181
H         5.04597139042343    4.42668118391480    5.32611274898144
H         4.11641364340419    4.44186425425332    6.83675481325450
C         6.02370075810378    3.43132445677292    6.98844356476986
H         5.72421987109477    2.87618826157214    7.88774662027032
H         6.65721053142935    2.78077495840884    6.37988971160782

