65
CSD_code = DEGROY | q = 0 | S = 0 | Stoichiometry = C37H20Cl3CuN4 | MND = 4
Cu       11.72269396739579    0.98537625458959    2.97295675735436
Cl        2.93171126718843    4.14044144075520    2.67372441640197
Cl       14.34122300818659    6.52520498561449    9.86845341671006
Cl       19.95510733945445   -3.38120274621834    2.25974888906302
N        10.24677508991082    0.69682800328781    1.94576319777757
N        10.78401439379470    2.25440355333299    3.93921091083550
N        13.34343491919208    1.15879891460338    3.85042260849040
N        12.43875808702216   -0.33436502001524    1.94353743700886
C        11.63125383100363   -0.84669578860853    0.97053242715140
C         9.48649595589931    2.68412028978184    3.75205053235990
C         9.24366802527863    3.78310915805103    4.62415021572042
H         8.32530844127687    4.33503311075865    4.66513254486614
C         8.25071542411237    0.47023898895139    0.94380271056045
H         7.21184256373990    0.61530591283061    0.72102140144564
C        10.35314876255353   -0.27818530263861    0.99731940490423
C        12.63625825608837    2.92268166575693    5.40754974576507
C        14.13965758939449    4.67100177735578    6.35087005417268
H        14.66602270157519    4.69195789874418    5.40832306587939
C        12.35724152600046   -1.79687472976204    0.23062009851053
H        11.97947539165641   -2.36068562915364   -0.59944753853690
C        17.17573581575801   -0.53690330023643    2.45317294986544
H        17.13458019130392    0.54046840544786    2.39505222073508
C        15.99585551241298   -1.25961850397400    2.61665643073500
C        11.33847888603871    3.03736484719249    4.91541020090312
C        15.42943294693224    0.79303546332852    4.68373881615715
H        16.39707969022228    0.34906762801638    4.81082897004728
C        16.06234622277366   -2.65054913151909    2.66268253723586
H        15.15601045808262   -3.22019863153927    2.80286563371920
C        13.55451842197535    2.00318203444596    4.90655580948110
C        17.27411552534598   -3.30602405869812    2.55673336531514
H        17.32098877897468   -4.38288169761543    2.60102408636052
C         6.63460972974695    3.13742704984335    1.60830806605614
H         7.23934558860634    3.16147842219294    0.71431725620338
C        13.05645213539943    3.81059049937361    6.50963424606845
C         7.18977355408787    2.67104511394397    2.79793258264801
C         5.33041881628280    3.59220447728015    1.56559540688231
H         4.90723270721054    3.95862997373511    0.64341030143178
C        18.39207400653883   -1.18297357368484    2.34107668465618
H        19.30233320751920   -0.61927101861363    2.20898686616229
C         8.97293102981219    1.17601984596395    1.93975844819210
C         5.09670411155925    3.11435326823181    3.91520325718704
H         4.49012942563428    3.10267092949902    4.80723389978739
C        12.37828238332102    3.80339583388191    7.72563639253031
H        11.54482045699731    3.13100109193998    7.86379931396391
C        13.61827789941790   -1.84524866353654    0.77532117031916
H        14.44484757682186   -2.44528379179598    0.44854246412179
C        10.37933980529652    4.00264692187895    5.33686624317405
H        10.56022835262993    4.76488700369933    6.06858630376791
C        14.49207389835089    0.41305077600185    3.68154836621831
C         6.40322237347150    2.66616763940089    3.94827903346050
H         6.81659914653236    2.28935655776186    4.87184471747038
C        14.85706037150107    1.77019729740254    5.43430858184198
H        15.26983243453562    2.27302391337713    6.28636766527654
C        13.84843152887085    5.48317221196615    8.57956404357946
C         9.11031452940363   -0.42735211662983    0.35677278915690
H         8.89581205293211   -1.12064154368321   -0.43249665762945
C        12.76945475161559    4.63230427425383    8.76022477855447
H        12.24416926514353    4.61922551140933    9.70236616688951
C        14.69904355307831   -0.57606162369202    2.72085491909122
C        14.53687326437454    5.50749443405974    7.37694196397520
H        15.37309858302369    6.17650397109247    7.24701687579122
C        18.43578736069707   -2.56732617333168    2.39555445607434
C         4.56557461457860    3.57714556516153    2.72141656202644
C         8.57140722124271    2.17215395432534    2.83268459036405
C        13.66089527322121   -0.92602382557238    1.85457892771444

