53
CSD_code = DEGTUH | q = 0 | S = 0 | Stoichiometry = C14H22N8NiO8 | MND = 6
Ni        1.18537830911669    6.54824665485134    9.28706802789491
O         1.43260161934228    4.46573782261964    8.64232279287940
H         0.76240515716549    4.40401356306339    7.92073660716839
H         2.30217753812302    4.33290275988711    8.25613882095934
O        -0.02761075693233    6.30718352125070    2.47132144130457
O        -0.40754345026543    4.80450304314934    6.74822456191168
O        -1.07796413345985    6.34159151424901    8.91635278981095
H        -1.03014270646376    5.75898396909506    8.13119820008750
H        -1.50073536108854    5.82686024012582    9.60922710177091
N         1.40980205555683    7.17088858592122    7.55139953278222
N        -0.18405342526179    5.59044591557176    4.61723934818651
N         2.12857228233956    8.58163201790536    5.94600899534768
N         1.08667961244978    7.49064212559129    4.05210413623398
C         1.38831625726701    7.62410937044025    5.37152339884040
C         0.92066422834861    6.72427957939075    6.33886412992479
C         0.08099460745727    5.65061761519924    5.96821318031262
C         0.27990286289534    6.46515824489755    3.63319831575116
C         2.10027918353144    8.26971923586489    7.24063112394165
H         2.58496281546044    8.89296238426827    7.96887401104798
C         1.59960695618292    8.44594651921402    3.09404035652765
H         1.48163177995551    9.44882265126881    3.50009328639249
H         1.04020601545812    8.33047527720451    2.16792093580956
H         2.65876331861549    8.26042084732570    2.91076270423411
C        -1.04735769522462    4.52921331357018    4.12650204458211
H        -1.29448902980796    3.88249794811711    4.96455223949464
H        -0.52981311152342    3.96927826542682    3.34862286481621
H        -1.95334523593781    4.95839648164556    3.69932085875326
O         0.93870534197780    8.63076907399505    9.93174618265252
H         1.60876114651308    8.69234517635224   10.65348584095511
H         0.06911946062785    8.76395735702555   10.31774385890035
O         2.39835284673072    6.78878981928983   16.10290753067910
O         2.77847344768924    8.29178978313879   11.82613561260531
O         3.44861115047219    6.75511263963133    9.65800031884434
H         3.40146658506770    7.33753878424624   10.44317579793698
H         3.87230791051627    7.26938879444563    8.96504644730932
N         0.96131029061124    5.92533900251191   11.02267366830865
N         2.55490046065822    7.50567861623496   13.95704798125380
N         0.24254428587010    4.51444029806259   12.62792547098170
N         1.28424343339190    5.60537011701461   14.52196904737069
C         0.98271801600644    5.47196170181970   13.20251932881122
C         1.45037632859700    6.37188443738278   12.23526652713602
C         2.28993438515566    7.44558878254113   12.60605526878417
C         2.09093690820694    6.63086843415534   14.94099757948601
C         0.27093095438589    4.82641102838615   11.33332040765293
H        -0.21372986263848    4.20322998394732   10.60501590743057
C         0.77126724277685    4.65000646701085   15.47994677473645
H         0.88925959186585    3.64715724630329   15.07383255371214
H         1.33062463847322    4.76541417717686   16.40610033461993
H        -0.28789863024128    4.83552785372013   15.66318309991167
C         3.41809772226664    8.56693099914734   14.44792944669638
H         3.66522647176569    9.21374976479930   13.60995881556314
H         2.90047765624540    9.12675054743762   15.22584103536891
H         4.32409252370885    8.13776964710607   14.87511335551558

