59
CSD_code = DEGVIW | q = 1 | S = 0 | Stoichiometry = C26H27ClN4Rh(1+) | MND = 8
Rh        4.64857805204793    3.51307250281312    7.67246662293548
Cl        5.87243326955078    1.61601646236245    8.13976434456850
N         6.38306378200019   -2.02528024670616   10.90541159473280
C         6.06791577142122    5.09835841024872    8.12418525056771
C         4.77035311095944    5.71511935454751    8.03743686648778
C         4.24852388158221    5.47433217579184    6.73352107300533
C         5.25435050664306    4.76646445112566    5.97618739868298
C         6.37989665488829    4.55452354451684    6.82619889232682
N         3.30956374583642    2.20501617267300    6.74052207969466
C         2.33306578618717    1.70531287703285    7.51965424392949
C         1.39525498597947    0.79867711319186    7.03114972271242
H         0.62333271023792    0.42636514400537    7.68412906656278
C         1.48846728793305    0.37954153795780    5.71773984982881
H         0.77770719687068   -0.32433409600962    5.31455179358983
C         2.52971547353135    0.86322122794746    4.93716259069326
H         2.65833810817572    0.53943186255881    3.91741226181960
C         3.41598795555329    1.77144573181609    5.48839061063971
H         4.24612709981649    2.14850656458509    4.90786989364683
C         2.41339276853667    2.10598256381678    8.90490346086744
N         3.43560366078394    2.90000016805052    9.25621086698858
N         3.41565258593832    3.00842807334884   10.57799881521808
C         2.38782854061580    2.31058325170663   11.09425163690774
H         2.20460294220368    2.27270379471327   12.14922441097374
C         1.70758955851509    1.72109321328057   10.05411260691474
H         0.84061874821467    1.09831012980014   10.11616989689496
C         5.54278858110267    1.29654434825868   11.26535156031026
H         4.62990136516564    0.85975326091263   10.88940325529529
C         5.64723970110109    2.64812348203403   11.53878119870985
C         6.84499257171220    3.15410508428931   12.03446967007206
H         6.92564147837015    4.20599034701692   12.26617681407911
C         7.93134503055944    2.32140415962781   12.24017154598025
H         8.85348903448456    2.72914657167249   12.62422836097195
C         7.84176657942655    0.97227423288358   11.94956994497218
H         8.68588639605305    0.31640630522414   12.09600657576819
C         6.64158310377604    0.46074214933822   11.46441069868715
C         4.49349215321313    3.60938654611608   11.30994259146245
H         4.10780775878824    3.96410222644201   12.27074296270960
H         4.85770311031368    4.46524697339761   10.73565166033161
C         6.51153714657677   -0.91585399029927   11.15782282717970
C         2.99653521079611    6.07125519436543    6.18060394104750
H         3.22042940423483    7.05752106759721    5.77037245965528
H         2.24144761799766    6.19129110877607    6.95370373564298
H         2.58244207572962    5.46185301996569    5.38085432107116
C         7.71263806018258    4.01667356431612    6.43594235498002
H         7.66429836477647    3.46243467077519    5.50309524796999
H         8.10884976782289    3.36095463981358    7.20824128842744
H         8.40580082477937    4.84967526580382    6.30796088797794
C         5.23131325762232    4.57003285175562    4.49641736613346
H         4.21934837865058    4.43906936345323    4.11995863142465
H         5.84411893058870    3.72459867249198    4.19146264111894
H         5.64694016274752    5.46392271638829    4.02742622795312
C         4.11441242205530    6.59898126620800    9.04832399272974
H         4.69140762243854    6.66463258393928    9.96675087549696
H         3.10579151387460    6.26492055049692    9.28819462791851
H         4.03529713742029    7.60287932599820    8.62927514101611
C         7.09106644273744    5.26110652219617    9.20392823970085
H         7.93897360455351    5.81882959416776    8.80539431465695
H         7.46029699427947    4.29431212354102    9.54360592871975
H         6.69845401203269    5.80889221586082   10.05643225864990

