79
CSD_code = DEGWER | q = 0 | S = 0 | Stoichiometry = C28H35F12MoNO2 | MND = 6
Mo        8.78567238847382    1.27135546337372   12.95939883575815
O        10.00502819351140    1.82200054189367   11.55288534717683
C        10.75012092323717    2.91314613016349   11.28061907662538
C        10.00926011192425    3.81091913625012   10.27085997925945
C        12.10480710178277    2.47822431812583   10.67255704485027
F         9.00345433467532    4.45553833938666   10.87051841284795
F        10.79281381278526    4.74610651066932    9.72114796836731
F         9.47471690942380    3.10410265299918    9.27427486504276
F        13.03570447973580    3.43518496199217   10.74074859371769
F        12.01024845009536    2.10310686958104    9.39564675994515
F        12.58557064872452    1.42306755426126   11.34448798845723
O         7.88784014662764    0.16352701755262   14.26705552090000
C         7.48340479708325    0.26695272828616   15.55009039504636
C         7.79558501778456   -1.05896289634196   16.28202273338776
C         5.96682339562121    0.53733821764318   15.59336065065744
F         9.01621157420718   -1.48644351686380   15.93235640692552
F         6.94425594712592   -2.03875979175139   15.97285105637042
F         7.79509971322732   -0.93516778207758   17.61341795489538
F         5.29647398785309   -0.25673298977557   14.75496076077308
F         5.43483377047196    0.37134769391371   16.80941772572828
F         5.70689546997945    1.79427400402786   15.22407343126882
N         8.27888234181094   -0.50411695989445   11.62942138952220
C         9.18266398532397   -0.90269126523460   10.73252384145485
C         9.15307756462674   -2.14539005958780   10.12662929754967
C         8.14230018209127   -3.03402649073935   10.46437255487022
C         7.19748019069379   -2.62291786854169   11.39201041574996
C         7.29887058641454   -1.35466270598276   11.93666467606963
C         9.72164671968145    2.36589001278571   14.35318677821997
C         9.24495524859869    3.60793751827168   14.81741964860133
C         8.08070529714206    4.02936857470970   14.22432153507551
C         7.68290902073435    3.05527770912175   13.26728910217595
C         7.11428275231343    2.42035123623316   12.29424151946327
C         5.97009178429192    2.45789839490788   11.33731880833827
C         5.66510541452323    3.89327516510453   10.88980814431581
C         4.73975681623514    1.87206267575474   12.04730771397183
C         6.29670487617288    1.61483110263662   10.09909127149745
C         7.34343193347171    5.32262772327836   14.48291510494294
C         7.53007524100934    6.24324580501567   13.26903153896280
C         7.88080060145964    6.03291650903146   15.72834359531269
C         5.85566787876934    5.02377978566584   14.69512169681763
C        10.97011853205583    1.74146907997273   14.92791385220010
C        12.20985652053089    2.62566517881124   14.71408096700992
C        10.84770634961406    1.49334071461816   16.44088914162812
C        11.14727958535903    0.39313254052900   14.18353693776836
H        10.95373403815084    3.53536305072605   12.18187274157596
H         7.97968500243372    1.09908450736300   16.09743218540691
H         9.95037060096568   -0.17991223053200   10.47998523921617
H         9.90781671971000   -2.40917021016815    9.40274443772528
H         8.08933974489079   -4.01286405720934   10.01301420038175
H         6.38606560823029   -3.26945580098415   11.68636112879290
H         6.56637822173878   -1.00124322027786   12.64960964319464
H         9.75361739103139    4.18646532286351   15.57739680532997
H         5.38155435479639    4.51272100370615   11.73507754756656
H         4.84178757251525    3.88848084044144   10.17796066398703
H         6.53431325855122    4.33359414363939   10.40958254181297
H         3.89165443087334    1.85860273642845   11.36571871527044
H         4.47963885442190    2.46899604426564   12.91804698620298
H         4.93624492704856    0.85417167581077   12.37633312154472
H         6.36644008869581    0.56181537601804   10.35580119299247
H         7.24226485751654    1.93002534843812    9.66283273491379
H         5.51532538704536    1.73222257100594    9.35071398431664
H         8.58015446357828    6.50029944887929   13.15164300618143
H         6.96097700459560    7.16108291820935   13.40067830777667
H         7.20311472580621    5.74915603999579   12.36096411383479
H         7.81750444164158    5.38536595424050   16.59951310490204
H         7.28920286510981    6.92510327282857   15.92204604907325
H         8.91457371902273    6.33840203656364   15.58910006021164
H         5.71487690243660    4.43855448439400   15.60013224117864
H         5.46033086544078    4.45065121466446   13.86335534422200
H         5.29250625346683    5.95011598558570   14.78729139044293
H        12.39854284781219    2.79286582939588   13.65652599349492
H        13.09013308278489    2.15064150452177   15.14354854252372
H        12.07381122030560    3.59149873589158   15.19394635022150
H        10.07214211894623    0.76436033401898   16.65973015720213
H        10.60707579285013    2.41751671943757   16.96014680926085
H        11.78780841467930    1.11354841125230   16.83737713227233
H        12.02065402363194    0.40864210439899   13.53317712077402
H        10.24659643411848    0.18462036816484   13.53585321042956
H        11.24457316789442   -0.43971200382165   14.87859615628434

