141
CSD_code = DEGXIX | q = 0 | S = 0 | Stoichiometry = C45H85ClHfN2OSi6 | MND = 5
Hf        6.16823490608797    4.58413933383248    4.00514865090422
Cl        5.25049946634397    5.56485085350923    2.09095359955546
N         7.13827712832263    2.76140268896258    3.00199744281836
C         6.36148996429908    1.72873888742356    3.06702953018871
C         5.09019283425439    1.82711948531707    3.72412247356698
H         4.49320101471387    0.91291963811444    3.71115455915098
C         4.67012255441711    2.95271378925784    4.35251697850187
N         6.91615162583213    4.96920321239240    5.67365890669948
C         6.73469261055121    0.38348807154320    2.50940588636033
H         6.04731584835318    0.11481278516051    1.70768353998436
H         6.64083763998733   -0.37099895595927    3.28939811905725
H         7.75228639072742    0.37653854145522    2.12504848834293
C         3.32083474938250    2.88336782685002    5.00854704771452
H         2.89678559508318    1.87535924194106    4.96174551026946
H         2.62686936020349    3.56642033346138    4.51653381500066
H         3.38995863719801    3.18220745531900    6.05376010660028
C         8.40944409533871    2.70815676180711    2.40943664925376
C         8.57363797394014    2.82173675260015    1.02493316155249
C         9.86143980727034    2.85277029934696    0.50859295070759
H         9.99277909940426    2.94998947193658   -0.56018081425407
C        10.97842234242528    2.75913804815214    1.32632824505306
C        10.79094298252772    2.62213016503292    2.69642059612566
H        11.65233615002169    2.53601228823914    3.34407722410378
C         9.52285816815227    2.59219162175031    3.25206751617117
C         7.37871232769016    2.90326693860978    0.11979367137243
H         6.98020218495695    1.90613781093290   -0.07235951336223
H         7.64973172941450    3.34542081562568   -0.83665849934862
H         6.58254738051933    3.49562490593109    0.57114008717245
C        12.36081397695990    2.78045369976835    0.74606940119649
H        13.04883625409317    3.30729479345028    1.40403750889081
H        12.36663329466218    3.26103574141872   -0.22942108298046
H        12.73053798966145    1.76197813831101    0.62325550101536
C         9.29871093405415    2.43551056886856    4.72507661349436
H         8.60105343644695    3.20264292201860    5.08430061486159
H        10.23580424629329    2.50707640428424    5.27167002565010
H         8.84985987874755    1.46416408157994    4.93728280888352
C         6.76858455998954    5.72287454554007    6.76567246856802
C         7.02987014148499    5.16594353934330    8.04828874540040
C         6.83965207566972    5.91343607286853    9.18758675867228
H         7.00452723528644    5.44085554862501   10.14539554765218
C         6.43447881444519    7.24193700550874    9.13998628634089
C         6.22835312967671    7.80814784069455    7.88756721190918
H         5.92860810625572    8.84206250763184    7.82855187106101
C         6.38187358492964    7.09357473785820    6.71267801551254
C         7.46979042039503    3.73351883972097    8.10503275877305
H         7.56687557626375    3.44027180215135    7.05056515327090
C         6.23925326681451    8.01098948697590   10.41541762487048
H         6.37220377378872    7.28867048421306   11.22931613823857
C         6.16143691585174    7.74351484031485    5.36959396037051
H         6.49386467545473    7.00606654907610    4.60579442586061
Si        9.23639350314957    3.60492704049074    8.82002496196219
Si        6.05417925866767    2.62217362307526    8.75586519834316
Si        7.67581998374959    9.26042431444528   10.66787779825192
Si        4.43002488334304    8.62185081440770   10.61257192502661
Si        7.24420503185442    9.30931916740886    5.14888255883055
Si        4.28138934375732    7.95694803787455    5.04615722013900
C        10.33988333989180    4.81107008831241    7.82601509039857
H         9.94571186727643    5.81973435995331    7.89793749285943
H        10.36299440717977    4.55233749614098    6.77268224585177
H        11.36297824588929    4.82813557902355    8.18981803328521
C         9.87489112049157    1.81649750868484    8.58342969834869
H        10.94250853252886    1.75260038570481    8.76842146939606
H         9.69206453157694    1.45545389168754    7.57744055249178
H         9.38550269584528    1.13223270064558    9.26817687739234
C         9.43653358573643    4.04422581247631   10.66857936963376
H         9.27544435875534    5.10276639250753   10.84163249845964
H        10.43996929550193    3.80636502437903   11.01064190803573
H         8.74088132909571    3.49441092372057   11.29305554731755
C         5.90443217566308    1.15807458929673    7.53329163966039
H         5.05944167791202    0.51688271285567    7.76390245403115
H         6.79764335693150    0.54153218620415    7.55157363898346
H         5.77810040693581    1.52823777186301    6.51865677199099
C         6.32384294396277    1.92771003938200   10.51570367387162
H         5.51710201838672    1.25538689587675   10.79077098915276
H         6.35141976222701    2.72082068917701   11.25537834553319
H         7.25251129884928    1.37252720980390   10.59021507403552
C         4.41700775939332    3.60464346201075    8.76419022848084
H         4.34868178901922    4.21919871008360    7.87174766686637
H         4.37017260537738    4.27627887933922    9.61489786542225
H         3.54499447771086    2.95793229745018    8.80294687864554
C         9.31078012020665    8.28382477866016   10.49986844925514
H         9.29332482062634    7.65859378849143    9.61249270661316
H         9.47353677891341    7.63260337544723   11.35331587460617
H        10.17018262720726    8.94311255851371   10.42454951213985
C         7.58163787307664   10.00093674772292   12.42767941814962
H         7.43283943341155    9.23329397231288   13.17991983103376
H         6.76443933014564   10.70932558219700   12.51444859225447
H         8.49697693191795   10.52894012014702   12.67608883982676
C         7.73366555251783   10.71514838364176    9.43660921434340
H         8.55080322504557   11.38680029281183    9.68482018761089
H         6.81929814518332   11.29751816155685    9.45421128816468
H         7.89110040880885   10.36937513078281    8.42196312871834
C         4.08413411222325   10.34269869560754    9.85972199526385
H         4.42560225706296   10.42121074662352    8.83419431015233
H         4.57432142464155   11.12232298645940   10.43441582671291
H         3.01928531423381   10.55644688597143    9.86458108010876
C         3.26185660680542    7.31731083450563    9.84494476135302
H         3.10200939408395    6.49077457072954   10.53092247864909
H         3.68304726015607    6.90369349900277    8.93430477508385
H         2.28767147621823    7.73379464040542    9.60650008474719
C         4.01224227373068    8.74325909951514   12.47497109432215
H         2.97435130473626    9.02493442255085   12.62368565400348
H         4.62604403472470    9.48375102963058   12.97567657061619
H         4.16762032175146    7.79504331107630   12.97993061387241
C         8.91275287884267    9.07289367511179    6.05680537165756
H         9.40357628305362   10.02506284835984    6.23649912058358
H         9.60684598248445    8.45080236069340    5.50117296290377
H         8.75286139956608    8.59598925878922    7.01881579109725
C         6.43616170330470   10.92354611880049    5.77870554715712
H         5.53893089201273   11.15820000936716    5.21464397706903
H         7.12179188319937   11.75786367421146    5.66032343423469
H         6.16350805203699   10.87747977803610    6.82624290001485
C         7.54738714876371    9.61930064401856    3.28146182079333
H         6.86835883604498   10.37498823414749    2.90121864941453
H         7.38403974021635    8.72232687876302    2.69491041846448
H         8.55560927346150    9.97196160216918    3.08532900827426
C         3.95905098368000    8.73577016702723    3.33290430643267
H         4.38738942224855    8.13663276112814    2.53672550436515
H         4.37765647630974    9.73375816884137    3.25909350577998
H         2.89305466854418    8.81405826059410    3.14216177931759
C         3.55772698567051    6.19172422561438    5.12191735036218
H         3.45517155548576    5.78112547474531    4.11953505322757
H         2.57643263313929    6.16333489931966    5.58778299544639
H         4.22412757778104    5.54961634417771    5.70304171857346
C         3.35316713199248    9.00557153494275    6.33888642675101
H         2.28989146263559    9.01718870104307    6.11798291292127
H         3.69227428937844   10.03445550280970    6.33938718967496
H         3.47755912413222    8.61288959558961    7.34045112574771
O         8.20300956251977    5.60147602580814    3.03587253784201
C         8.42613294198631    6.09681092922866    1.70669731125464
H         8.14925379302100    5.32348639347917    0.98966209954088
H         7.78461240686799    6.97086294567364    1.54246858294230
C         9.90023159708063    6.47460976285416    1.62400654612861
H        10.49807782348431    5.59929879165259    1.36666817620239
H        10.08015530084097    7.25927561266453    0.89333817704720
C        10.18217253440406    6.90979830397955    3.05837980666451
H         9.81234420123788    7.92046129339152    3.22421984346281
H        11.23684037328029    6.86518959471690    3.31916110972315
C         9.35650909866603    5.89669004377557    3.84256596945907
H         9.93003992112970    4.97319895265858    3.97852078056919
H         9.00507059280389    6.25360919430536    4.81352394176320

