101
CSD_code = DEGZAR | q = 0 | S = 0 | Stoichiometry = C39H58AuO2P | MND = 2
Au        9.34349653374479    7.16404325938449    7.49680820914832
P         9.15553266119080    7.10784016819830    9.74704657963320
O        10.87625680048751    7.11130126922174    2.43441446859273
H        11.43678929777939    7.55795741623123    3.07677475014409
O         1.86504182107640    1.07645112473886    1.32306073787725
C         8.33303492675059    8.64339443125290   10.40111006706510
H         8.88864585748931    9.43033153280503    9.86447138263470
C         6.88679535672411    8.71105819539732    9.91054559397105
H         6.84488300167975    8.46132916066200    8.84531826552680
H         6.27613170487772    7.98774812292928   10.45518475765987
C         6.32224415194970   10.10897637271349   10.14714628724261
H         6.89323869113497   10.83500379678367    9.56389459463570
H         5.28504305971888   10.15114320916414    9.80904970973367
C         6.40302178653084   10.46659124080850   11.62883495138924
H         5.77053959415683    9.78362549259539   12.20144639853663
H         6.02747565335109   11.47916220053813   11.78741475128196
C         7.84080104946158   10.36407208015770   12.13081826968224
H         7.87948802112857   10.59810713147034   13.19687994361066
H         8.46040726905942   11.09563448252872   11.60603385621173
C         8.39981605328280    8.96071094971530   11.89429283342106
H         7.80789655594084    8.24472617323557   12.46405194433300
H         9.42732152533060    8.91420184966176   12.25973932470334
C         8.29596192192222    5.58428598715594   10.37880083860669
H         9.05283269725267    4.80088215797193   10.22126542876661
C         7.10953713289077    5.22437408901976    9.48174253750664
H         6.29954186099068    5.94396355703959    9.61160324049135
H         7.41808404635738    5.25595376230094    8.43197366500713
C         6.60098306349686    3.82940334516886    9.83624140973831
H         5.74443908519682    3.57878363930244    9.20776826461422
H         7.38594629954078    3.09554764143803    9.63792017204029
C         6.20398634700285    3.76360867915628   11.30880576947226
H         5.36880795116486    4.44498727931730   11.48903587576623
H         5.86970761636836    2.75487871471034   11.55811608954947
C         7.37749412719188    4.15543259137989   12.20287864822837
H         8.18874865042686    3.43458945331364   12.07549255947834
H         7.07123484315733    4.13118717681801   13.25089021867265
C         7.87747656710585    5.55444353049809   11.84595150243881
H         8.71537029576218    5.82557981200654   12.49255488109808
H         7.06718610094361    6.26625148695213   12.01358736906319
C        10.79900055887439    7.07975018700271   10.61575125907463
H        10.65704277299803    7.03517650645883   11.70291676898522
C        11.59147550514388    5.85497576070227   10.15224578458482
H        11.09430701243911    4.93431355333131   10.46563487630728
H        11.63799981013750    5.85733108093310    9.05799174318826
C        13.00748370108374    5.86336716253174   10.72186833859576
H        12.95958015105517    5.80292152008749   11.81246076121747
H        13.54788446905175    4.98574263095978   10.36205482839036
C        13.74420249625812    7.13454615442155   10.31772613306102
H        14.75072348973680    7.13486531078901   10.74011778120454
H        13.83495451805862    7.17193037094817    9.22999270850385
C        12.97123364147921    8.35410595209393   10.80463753349532
H        13.48474950775635    9.26942545609847   10.50394338008501
H        12.92287603804563    8.34129413403747   11.89685658664604
C        11.55574935537558    8.35509231164245   10.23459773394629
H        11.02687175749291    9.23878080650808   10.59723605110367
H        11.60448487513167    8.41824150931439    9.14204535171116
C         9.48183229381289    7.21790701104043    5.55087508040680
C         9.47575180976428    7.20742677354599    4.34491188478418
C         9.53030331258502    7.23161082796833    2.88605187185850
C         8.63391700365086    6.12077654180188    2.27573735828806
C         8.99898225078660    5.95768520453131    0.79940948380349
H        10.04954561451589    5.68563238828897    0.73230635025835
H         8.85769879853178    6.88225311720871    0.24934764761659
H         8.40948818515068    5.17926683945453    0.32424677245285
C         8.69498301566385    4.76810532294618    2.98188024985775
H         8.63692868983214    4.93192488885290    4.06117568222485
H         9.64794247477205    4.27888068380272    2.77011792209235
C         7.54266098883344    3.85622678180673    2.54827883531641
H         7.66497847561675    3.55427973569130    1.50667238704896
H         7.59332588528087    2.95231720370670    3.15648835370540
C         6.17210308729414    4.52837689400243    2.71801515822961
H         6.05067344232282    4.75306575205921    3.78841337371178
C         5.01389586582939    3.64049431583475    2.31331273539083
C         5.02376165020359    2.27784105862600    2.60569480835864
H         5.86949034891952    1.84483780761857    3.11601271043234
C         3.97574417667463    1.45054903611405    2.26959666682389
H         3.99911805326909    0.39694352371368    2.49905195978463
C         2.85572278292113    1.96981503737119    1.62386318870071
C         0.71338955618759    1.55124820124122    0.67389693935520
H         0.17936798643787    2.28662369383822    1.28594152148222
H         0.07744677065461    0.67963857276428    0.52418549757428
H         0.95166887198729    1.99535918573558   -0.29891409472933
C         2.81990543364832    3.32674314712300    1.34965087085862
H         1.96295368418745    3.77079115798960    0.86491771739252
C         3.88045994472340    4.16111916891219    1.69332514816695
C         3.74797777168544    5.62280327403048    1.35816941900381
H         2.72728446597701    5.95262562435471    1.56939429774916
H         3.90971434209673    5.74702113014066    0.28172004674220
C         4.75078395814653    6.48303345336794    2.11487792799626
H         4.73691286635816    7.49967137682484    1.71887716788088
H         4.48356311059067    6.52892235857588    3.17304146823994
C         6.13686990891322    5.86721018113548    1.96328681763691
H         6.31243550496896    5.68685369869224    0.89862092621806
C         7.25043421530753    6.73936356014741    2.52308519277999
H         7.11992022177376    6.78803267609784    3.61234274641625
C         7.39874398749333    8.18059777507482    2.02883424837608
H         6.69860899671683    8.84972884774749    2.52935402225414
H         7.21380290641734    8.24341775049392    0.95568084500741
C         8.85738332495692    8.53969490723155    2.36674539687546
H         8.91226201336666    9.31851946449136    3.12888348688979
H         9.40290231167132    8.88634107643175    1.48837814105227

