33
CSD_code = DEGZEW | q = 1 | S = 0 | Stoichiometry = C13H15ClN3Pt(1+) | MND = 4
Pt        8.77176753248696    0.52457501240649    8.26373150167385
Cl        7.24523562567967    2.00131859014490    9.00178937956951
N         7.68009838047111    0.51992054246790    6.47532072932054
H         6.96535613660488    1.22837198267505    6.68322265619171
H         7.19379324626432   -0.35483514524197    6.27769997370851
H         8.17685843044219    0.81144363539575    5.63339891874075
N         9.63854941863395    0.63057344842825   10.03766533386380
N        10.27167373405048   -0.93659080893143    7.55525652963965
H        10.99854707085329   -0.46197668705194    7.02329878317689
H         9.86106118957473   -1.65293375913512    6.96081965197059
H        10.71828998677067   -1.40430967687715    8.34150763148627
C         9.67502086169431   -0.07194782951305   12.32877507035758
C         9.21647673055822   -0.97414868989005   13.30692732001167
H         8.53524063538953   -1.75946162407952   13.01664934025704
C        10.49917282531076    1.66215287145275   10.32626977883274
C         9.24665854528109   -0.17697639750758   10.98495290629169
H         8.54617510449403   -0.96315673567179   10.71580645561240
C        10.99224232815676    1.86807605995944   11.63802544369083
C        10.56728793219887    0.97289870713735   12.68141170343868
C        10.88032264673038    2.52595898951829    9.28718865975696
H        10.46732293954496    2.35563084027462    8.29400241248299
C        11.86214770382414    2.95074599687469   11.84752985903473
H        12.25262244496303    3.13638992464764   12.83424519372966
C        11.72638262794632    3.57722258693410    9.52904893683913
H        12.00787255469088    4.24506799518519    8.73045266295179
C        10.96932139022274    1.07394750529674   14.02100415334815
H        11.64394302741680    1.85667841498641   14.32604215447604
C        12.22152581325277    3.78578456921872   10.81866485226474
H        12.88682427225916    4.61378482521611   11.00637882589175
C        10.50832128735134    0.18301162528681   14.96065967981592
H        10.82640654236122    0.27761691469979   15.98745724264062
C         9.62870272692395   -0.84558091842752   14.60715357435440
H         9.27767830759804   -1.53185276587900   15.36154268457762

