30
CSD_code = DEHBUN | q = 0 | S = 0 | Stoichiometry = C12H8ClN3O5Ru | MND = 6
Ru       -0.14718968272248    4.85272850232725    5.31008788869867
Cl       -1.66773797801825    6.17396781937957    6.51285432741654
N        -1.00060589697499    3.43529118925241    5.53825759459992
N         1.18501742494828    4.59664107430947    6.82031515048911
N        -1.10788536466980    5.50240525748298    3.62651014347771
O        -1.60896337951030    2.46385841219078    5.66211099214974
O         1.39042399611433    3.99028269627467    4.20342067125404
O         3.54187585425481    3.50447090428342    4.41274220039223
O         0.87250673747144    6.50688284231642    4.97878193852731
O         1.17168511152296    8.19544719524762    3.55687431224629
C         2.48600155804482    3.89225395415473    4.85808987070199
C         2.39366333572156    4.28351131265549    6.34297180408397
C         3.51985622859826    4.29017014635414    7.15338798379989
C         3.38368626638655    4.64290534972198    8.48539526048943
C         2.12132815290949    4.96493316751198    8.96474476402333
C         1.04223085635966    4.93411226483738    8.09734685454809
C         0.60916102513134    7.19380155630888    3.93177223936584
C        -0.56682196312706    6.61694441987721    3.13057186555740
C        -1.04294686000310    7.22790136495625    1.98050399001675
C        -2.12128012096107    6.66025845825725    1.32439553818073
C        -2.68124957237528    5.50416347128868    1.84990202361888
C        -2.14690090951624    4.95430252247021    3.00297776205786
H         4.46741423789862    4.02801737367325    6.70825886344204
H         4.24321257469895    4.67162347732606    9.13768488602237
H         1.96994350945306    5.24646937319355    9.99442569280619
H         0.04024719622471    5.19133072917097    8.42080910663385
H        -0.55322527951190    8.12764277355694    1.64148891731136
H        -2.52031442178807    7.10774696769731    0.42713008023035
H        -3.52546720025962    5.02897424152422    1.37669341374410
H        -2.57006543630321    4.05656118239683    3.43779386411425

