50
CSD_code = DEHBOI | q = 1 | S = 0 | Stoichiometry = C24H19N4NiO2(1+) | MND = 6
Ni       -1.41163861354164   -6.30857815768725   -6.62446233593985
N        -0.60005549564489   -5.65571258805770   -8.68645337482720
C         0.01422216126349   -6.25583106702474   -9.68913700708114
H         0.50029615990960   -7.19558039349354   -9.46097267451353
C         0.05584543703872   -5.73090400512585  -10.97600136728925
H         0.56980074622803   -6.26013942046436  -11.76190797386749
C        -0.57524786664235   -4.52155616143756  -11.22165103929340
H        -0.56461299111999   -4.08444969053245  -12.20823900523039
C        -1.22328421930430   -3.88410478837880  -10.17678790412152
H        -1.73013840452727   -2.94411990289120  -10.32912768444304
C        -1.21972076692051   -4.48470611855260   -8.91757545206129
C        -1.89333705055245   -3.87962187233187   -7.78529324119231
H        -2.36962375655888   -2.91650402002779   -7.95416605880426
N        -1.93566950675687   -4.47098073833074   -6.64426191952363
C        -2.54134217281145   -3.88582363114792   -5.53386749311632
C        -2.76517134180670   -2.51074192501302   -5.40012581785999
H        -2.41943659900735   -1.83178881278756   -6.16370347547298
C        -3.39632496905773   -2.00211148690960   -4.28431053301856
H        -3.55763789449565   -0.93951369582742   -4.19886521838328
C        -3.82311172666285   -2.85284874977848   -3.27453442741095
H        -4.32915543762991   -2.45579882595240   -2.40916670129661
C        -3.58387934492345   -4.21124943522379   -3.36755010318216
H        -3.89913111304586   -4.87545820100114   -2.57531832154949
C        -2.93033790357798   -4.73284886814116   -4.47490889466661
O        -2.63698724839178   -6.05197378417882   -4.58183322110095
H        -3.05279951347086   -6.55899805842180   -3.87229490677409
O        -3.07103617921475   -6.81769021732634   -7.46059387171298
C        -3.10488346179863   -8.08820687421027   -7.67444999551203
C        -4.16141357588836   -8.73822652924520   -8.34940777250759
H        -4.98611157421820   -8.14882560484507   -8.71730808511783
C        -4.12324786208790  -10.09958393450691   -8.50331905172761
H        -4.93592150740645  -10.59854617117464   -9.00966663995731
C        -3.05517731490232  -10.87161472509178   -8.01680178768604
H        -3.06899220463528  -11.94072274003948   -8.15725612917865
C        -2.00286048297476  -10.27832568386323   -7.37000818205563
H        -1.18442019704012  -10.87217196247264   -6.99268784805598
C        -2.01558616202052   -8.88389599531161   -7.19966332891919
N        -1.06621339218984   -8.10434372717592   -6.60640009918023
C         0.08344050846595   -8.46396240977911   -6.11680609109677
H         0.44447868927440   -9.48544484063647   -6.12568112788909
C         0.86412461898022   -7.39912582172158   -5.55500383847039
C         2.12088752687469   -7.56433689041829   -4.96691402768085
H         2.56242144038786   -8.54707881122372   -4.92338196400398
C         2.77272368406264   -6.46222645938337   -4.44987566661031
H         3.74291392465830   -6.56402129772763   -3.98911455127004
C         2.15592184923503   -5.22035403091139   -4.53212849607443
H         2.62877225665264   -4.33690019720017   -4.13626448596554
C         0.91097207556026   -5.12800367251638   -5.13613622604040
H         0.41338998515734   -4.17010959587804   -5.21035134802807
N         0.27519678709118   -6.17683740862258   -5.63676323324315

