85
CSD_code = DEHBEZ | q = 0 | S = 0 | Stoichiometry = C41H39CoIP3 | MND = 4
Co       18.97721920657522    9.59145513574145    3.65111533098838
I        17.31980900205371   10.54138170494899    2.14185932168366
P        19.12740358542676   10.48035039276573    5.63723955760357
P        18.50180750052654    7.44478233363968    4.32806098940062
P        21.04961395900617    9.10373897733010    3.81178806893294
C        20.46636256691037    8.03549822611728    6.35380222913543
C        19.49167414349268    9.12421118947511    6.83532479762267
H        19.87334918418027    9.57549054051858    7.75690511389496
H        18.52793570936167    8.65378007842959    7.05992847406419
C        19.75630735495188    6.91092123357934    5.58242786963707
H        19.25873797708919    6.23367347921045    6.28523861350335
H        20.52357465389636    6.34709283267533    5.04213107634634
C        21.59415826752581    8.63715591345951    5.50462893546861
H        22.42613891089619    7.92868133042440    5.44113987492213
H        21.94953266951201    9.55318187238727    5.98995478638088
C        21.10661871241014    7.40209541917069    7.59973432320502
H        20.33941106431752    7.05326951271585    8.28902520405014
H        21.73292198477199    8.12522989452274    8.12028837230341
H        21.72740514433236    6.55140792556453    7.32269374260999
C        17.78342269287223   11.38849878215104    6.47849413474282
C        17.20440363522090   11.06262050952623    7.69868772614564
H        17.54692234750994   10.21298836644206    8.27034842306424
C        16.16483086377492   11.83159013408656    8.19335157906207
H        15.71695118297911   11.57227681134716    9.14221406184977
C        15.69480167905755   12.92151912745328    7.48098765197696
H        14.87921013799546   13.51127312435083    7.87277568613126
C        16.26703025921601   13.24921771370555    6.26176573168298
H        15.89856896065871   14.09233344677533    5.69685319316437
C        17.30240930104464   12.48438856949143    5.76362936864448
H        17.74169118037646   12.71966557706174    4.80236244059155
C        16.97679098428771    7.35228430820528    5.33911262779063
C        16.22057270809713    8.49947479738981    5.53988036101723
H        16.52297201864550    9.42934779761845    5.07380939721685
C        15.08212603721824    8.46292068055089    6.32488817179513
H        14.50854871687095    9.36518789983674    6.47858655071246
C        14.68467157714003    7.27062030926269    6.90443091850361
H        13.79569465324259    7.23565624460426    7.51703268474665
C        15.42225434110010    6.11568566940455    6.69020633268733
H        15.10330111698911    5.18186856398913    7.13101589802166
C        16.56306561240019    6.15244546614911    5.91163609161534
H        17.12917927221482    5.24711354878480    5.73474066171573
C        18.25452615068302    5.92335510084179    3.35471065400842
C        17.17385196669966    6.00386216343258    2.47456287724856
H        16.55754808403189    6.89533324976985    2.48241933935040
C        16.89509370555065    4.97262323051232    1.60218605547467
H        16.05376433410246    5.04664577579823    0.92893877941854
C        17.70549777202408    3.84733847469323    1.58516882916678
H        17.49680515046678    3.03876393083229    0.90010436648284
C        18.78770560775725    3.76586727463129    2.44375223469187
H        19.42424265710806    2.89232663953263    2.42942700531588
C        19.06785601361198    4.79744831111756    3.32321198273354
H        19.92260919275827    4.70588726752467    3.97747407658277
C        21.46669238076062    7.66719689820260    2.76046881579916
C        20.57113512827559    7.35712707297770    1.74261939633639
H        19.67657046760726    7.95966010374968    1.61622526214828
C        20.81157908325610    6.29182200389621    0.89491821723068
H        20.10373227967149    6.05330227288801    0.11523704103063
C        21.95537499399790    5.52975045113370    1.05874167231963
H        22.14292362373007    4.68808632447328    0.40854963649426
C        22.86884364289909    5.85325328328794    2.05011028595711
H        23.77174450684210    5.27006032783506    2.16374619207847
C        22.63431592790251    6.92360383937667    2.89328656176520
H        23.36637942929203    7.18194440653721    3.64693807928174
C        22.37780222915254   10.22288423666926    3.25349625639424
C        22.11703151633313   10.85950589352577    2.04167685946421
H        21.17649854123030   10.66339312966838    1.53801229691397
C        23.03102255044190   11.74042740737523    1.49974983667096
H        22.81837338652883   12.23369003485057    0.56277709920610
C        24.21783704930319   11.99546566157917    2.16900381563893
H        24.93399121768056   12.69020053324920    1.75535380292878
C        24.48553804823035   11.36054356050161    3.36958994361906
H        25.41202665541421   11.55777228717117    3.88975061131420
C        23.57317229864292   10.47329861768197    3.91382723944519
H        23.80292227022665    9.98950893006728    4.85172598560758
C        20.45265779167277   11.71462062752096    5.88670231594356
C        20.82526536898493   12.43827628264991    4.75862873370037
H        20.32762694894331   12.23661249993218    3.81706540814505
C        21.81539858626856   13.39983187983468    4.83242575405500
H        22.09992737819592   13.95027057395080    3.94801436758532
C        22.44497637598118   13.64411274737525    6.04066689892259
H        23.22852993597310   14.38467642532770    6.10401399911850
C        22.06148994387328   12.94574557288635    7.17496165778550
H        22.54114745831267   13.14949151723935    8.12190307424559
C        21.06325068927590   11.99155736824109    7.10478337934967
H        20.76232078416272   11.47018036879034    8.00327692838800

