19
CSD_code = DEHDIE | q = 1 | S = 0 | Stoichiometry = C6H8AgN4(1+) | MND = 2
Ag        3.42392733025623    0.91992318925131    4.03860929949601
N         4.09315483195544   -0.30944603229895    2.39169559554430
C         3.34836703948613   -1.30816862892857    1.82580536766304
H         2.36070405643740   -1.54231724214720    2.17216621877927
C         4.06419238040884   -1.88572810475712    0.82105711486343
H         3.82138541088492   -2.68804393015747    0.15659470654817
N         5.25464886065870   -1.22746619140427    0.78095851313930
H         6.01243135392169   -1.41687673238775    0.14264504802166
C         5.23802636828759   -0.28919348405128    1.73587520234788
H         6.05121530095347    0.38295742708732    1.93246767400027
N         2.74271221386539    2.14421110229683    5.68442856065168
C         1.72936193380685    1.95174830814079    6.50752287287492
H         1.06022211843629    1.11319373472280    6.47859955783319
N         1.64308733534068    2.94985315283585    7.39563013096730
H         0.95713040031870    3.03880804309960    8.12979061972131
C         2.64804316651154    3.82962780701008    7.13445759535798
H         2.80202169072606    4.72145008014040    7.70472963702017
C         3.32654804753582    3.32055735304758    6.06860376071991
H         4.18352016020817    3.71841014849975    5.56116252445014

