62
CSD_code = DEHGEC | q = 0 | S = 0 | Stoichiometry = C27H29Cl3NiP2 | MND = 4
Ni        3.23600757903057    2.90598044064253    2.16165045632793
P         4.26197891870951    1.83902525743870    3.73039513095149
C         3.92323595880795    2.16502352823302    5.50309676357424
C         3.97632991191329    0.03473289497521    3.67721919073739
C         6.07186708902658    1.99038568550669    3.65661955399987
C         6.84066347228402    1.08123080122631    2.93805006636594
C         8.20607097936729    1.26534949886742    2.81927796445961
C         8.81500467429091    2.36231683300580    3.40514240013465
C         8.05330860884807    3.27745133278596    4.11261787665930
C         6.68796488993630    3.09688591470764    4.23309215708635
P         2.09844230769482    4.09623793739351    0.74907831925845
C         2.60077865091634    4.00129022809352   -1.01189335307066
C         2.13481410386676    5.91255368934594    0.98076300279098
C         0.31968721920874    3.73875034890886    0.66148306849730
C        -0.59369085920291    4.43278916131977    1.44651542236133
C        -1.93797169315079    4.10956412764931    1.42602493679453
C        -2.38927030414319    3.07351903896993    0.61386204586905
C        -1.46792438173018    2.41073620160182   -0.15169824955275
C        -0.13346795187786    2.68669514620991   -0.14760425106469
C         1.87964501937312    3.31847580174790    3.34854894804494
C         1.75442938023102    4.44716318172087    4.21816539844167
C         0.56465467719268    4.59583901393820    4.96536790364163
C        -0.48856141434949    3.65367056813300    4.91608985075699
C        -0.31471297665696    2.51427769084366    4.09558257409286
C         0.83980968566623    2.32599906437063    3.31043977888921
C         2.79663482223712    5.35778096711566    4.29867380811864
C        -1.65081286751675    3.83631238267871    5.64357041073272
C         0.99751676604847    1.23308359542894    2.46964250961658
C         4.54521428878263    2.24789030956250    0.85970461877127
Cl        4.69304090850712    0.77427553450569   -0.05754455603149
C         5.53046889737025    3.12578950893389    0.72726969566581
Cl        5.34619342947397    4.57670211571005    1.66333419214127
Cl        6.98697624146669    3.05374292872733   -0.21687402837313
H         4.61365857643722    1.59260702058321    6.12206722913026
H         2.89752888704388    1.86813373210937    5.71827975443416
H         4.02173270026259    3.22593398227489    5.72215895696093
H         2.94312869854767   -0.15355342135201    3.96745495287256
H         4.12507622013514   -0.33881736754561    2.66614697556309
H         4.65364540606342   -0.46778485987599    4.36766188731104
H         6.37298978177441    0.23499935849815    2.45815977828541
H         8.79490305310330    0.55535872582598    2.25704387164633
H         9.87990823714112    2.50921690660634    3.30162025442446
H         8.52241986919897    4.14166455852569    4.55940569060521
H         6.09257846963329    3.82519258621110    4.76501327424095
H         3.59183143408815    4.44227792337971   -1.11064922020785
H         1.88855892956038    4.54661226748324   -1.63112937772161
H         2.65517656761474    2.96450645229353   -1.33589484903591
H         3.13047034374099    6.27535087879367    0.73213706887944
H         1.92236461717556    6.16881467600951    2.01716563157779
H         1.39911804157513    6.37193225050223    0.32069695045412
H        -0.25298820353841    5.22910956911108    2.09278771341235
H        -2.63641617663256    4.65920763991217    2.04155069647995
H        -3.43744941965549    2.81362468317385    0.59049415240783
H         0.56607837980598    2.11927659513554   -0.74330426866723
H         0.46124690638586    5.46414916773841    5.60005849403885
H        -1.10250188938047    1.77724728647097    4.04450471346396
H         2.74173722257379    6.22102311393646    4.93805800921549
H         3.69515681805125    5.20423221209119    3.72417034660223
H        -1.79077880564514    4.70359784892818    6.26261694979685
H        -2.44675776892558    3.11539042414819    5.60734928365405
H         0.23423798320587    0.48033795082652    2.38503739290934
H         1.87941908903088    1.13463710789932    1.83627408057709

