53
CSD_code = DEHGOM | q = 1 | S = 0 | Stoichiometry = C17H28ClCuN5S(1+) | MND = 5
Cu        3.99239758882045   -1.27008933645086    2.48584099638103
S         3.46989824790266    0.88073890598054    0.88899150844881
Cl        4.54827422314506   -2.29146162383982    0.66201618385969
N         1.64378589970670   -1.33146892299747    2.48889719538152
N         3.83311143286033    0.05888960284107    3.85490651547741
N         3.11491226691801   -0.16962063439948    4.94519338186977
N         4.08676262085442   -2.95078845471646    3.61291918841331
N         3.19074091838266   -3.92534754638259    3.37622377721872
C         1.13063345729406   -0.40269812181300    3.49712447748492
C         1.74367610383596   -0.60454677453420    4.88331441425383
C         3.81825865750048    0.08248656917590    6.09698949439412
C         5.04868162448987    0.53079819343508    5.72481216868843
C         5.06488993692241    0.50888516028669    4.28894128056144
C         3.22702130617452   -0.10791775295180    7.44124251703699
C         6.06795149441718    0.84844399609378    3.43543038191209
C         1.15492966716787   -2.69766286981738    2.71659836160902
C         2.18136626506555   -3.77726500689478    2.36145815234356
C         3.46424762266986   -5.01436147028075    4.12341745300908
C         4.58832687630460   -4.71291958067698    4.86915695530259
C         4.95750125012231   -3.41500574752289    4.50730217479959
C         2.66513014412224   -6.26240138671620    4.08500348079879
C         6.12462792309452   -2.63399756653324    4.98405869642763
C         1.30025576136216   -0.93232054632580    1.11823560941732
C         1.69988645795937    0.47581799596290    0.69620499992650
C         4.08507707500695    0.55304970152807   -0.78333337564959
H         1.37914585399861    0.61101441049099    3.18499224144831
H         0.03709226559878   -0.48492170362524    3.58439185456790
H         1.69683379998496   -1.65486488915493    5.19499336308960
H         1.16525726539252   -0.01731262209480    5.60330802565670
H         5.86209920592090    0.82100630621617    6.35578343312394
H         3.97745833336267    0.08958536827837    8.20083334016694
H         2.86023587168346   -1.12602139929579    7.56577100525041
H         2.39311274349904    0.57532546427433    7.60000109245905
H         5.93475405547738    0.78407446723255    2.37100796149673
H         7.01100610231778    1.19813879421383    3.81379856861472
H         0.88366568896638   -2.81602998345725    3.76750519307753
H         0.24703478534901   -2.87737664275539    2.12536147561314
H         2.68075591903895   -3.52598996712770    1.41868367163534
H         1.67580229480728   -4.73590663485306    2.24867045166950
H         5.09113266265071   -5.35140780163708    5.56478416903343
H         3.04282186020193   -6.95387769897510    4.83235248416136
H         2.74306608079542   -6.73970963881964    3.10853639205257
H         1.61327553672999   -6.06854108262749    4.29110254090156
H         6.92995559931912   -3.31208217974362    5.25350220372693
H         5.86773643583511   -2.04535741294881    5.86508617720497
H         6.46945337682615   -1.95786998984580    4.20469180652959
H         1.79479393722382   -1.64578692939504    0.45474167138101
H         0.21133925884455   -1.00905283174850    0.96289566031322
H         1.46163276705339    0.59658631487617   -0.35947255930090
H         1.15951224672453    1.23911899737966    1.25427808344915
H         5.11908866858764    0.88333832315372   -0.80421655592027
H         3.50034041134625    1.12908909649047   -1.49365884010682
H         4.03735215036494   -0.51290491695127   -0.98827090066664

