84
CSD_code = DEHJAC | q = 0 | S = 0 | Stoichiometry = C41H38O4Zr | MND = 12
C        -3.33060546779764    0.53282543300764    0.53486373346664
C        -3.74118090640223   -0.80623693573753    1.23482751885204
H        -4.84450934512403   -0.82661968400113    1.28454397906660
C        -3.15514319836886   -0.93585753453416    2.65296014119292
H        -2.46779996359227   -0.09397440615661    2.85355136562987
C        -4.26705362903200   -0.90920990212547    3.75470045059516
C        -1.85588809841231    0.46426203800899    0.13830817554290
C        -0.88549795394691    1.02283674260199    0.95917869153763
H        -1.19119389446493    1.51673324395907    1.87105876899526
C         0.45224473907215    0.96674982435002    0.60741610866169
H         1.19610941433016    1.40540045927514    1.25680902469502
C         0.83506043777935    0.35398771624606   -0.57305046393232
H         1.87808019337996    0.31307307282884   -0.85056278340821
C        -0.12833349227506   -0.20314493765393   -1.39734757016284
H         0.16313679935895   -0.68128418834888   -2.32104614806959
C        -1.46564275691356   -0.15026142654564   -1.04605297850854
H        -2.20960336907352   -0.59221205858603   -1.68995442176561
C        -4.13801242323595    0.76852625703213   -0.73901398139443
C        -4.08949051727333    2.04688174656512   -1.28663268805563
H        -3.49745537530831    2.80220738779449   -0.78553030912065
C        -4.77844741870251    2.34323378517861   -2.44851459897918
H        -4.73329650495196    3.33986197170525   -2.86340319103282
C        -5.52108106450979    1.36116940593883   -3.08255688122959
H        -6.06206782623510    1.58967673999634   -3.98888143833147
C        -5.55644905284228    0.08239358510677   -2.55497251705070
H        -6.12269095977508   -0.69095022419284   -3.05356271448052
C        -4.86619694941793   -0.21803041412226   -1.39144030333502
H        -4.87783183217303   -1.22628856289578   -1.00774138835676
C        -3.67511815815469   -0.79644027856969    5.15675599429237
C        -2.34336894868500   -1.04478980329862    5.46207655938663
H        -1.65661185182486   -1.34400899109837    4.68569952762139
C        -1.89896220249182   -0.93807693144607    6.77043962371592
H        -0.86057416585290   -1.13078659747223    6.99820922815762
C        -2.77511229224523   -0.59233859984466    7.78414477549477
H        -2.42299913677551   -0.51065501550392    8.80182546896231
C        -4.10842243869544   -0.36234747673049    7.48833200739654
H        -4.80134104031368   -0.10571544797802    8.27665864709396
C        -4.55459342941216   -0.46645890137276    6.18362349861733
H        -5.59540647012393   -0.29651675676609    5.93886776975899
C        -5.06243973097165   -2.21352182919970    3.69459444594276
C        -6.26798920623991   -2.26559869313104    3.00785860605544
H        -6.64209974381367   -1.36744593257378    2.53601646258259
C        -6.99217566908629   -3.44359989739500    2.94435304137273
H        -7.92777781672912   -3.46911786572724    2.40451393160515
C        -6.52114606733371   -4.58334336560963    3.57249450602463
H        -7.08680183564611   -5.50232757597300    3.52634603607310
C        -5.32194733323338   -4.53654449822085    4.26372188489456
H        -4.94968529276514   -5.42163399040938    4.75850887327179
C        -4.59498563086784   -3.36066371557343    4.32538616795543
H        -3.65816118486828   -3.33352568668678    4.85926035597797
C        -2.47574887883006   -2.75632708156254    1.37064028479096
C        -3.10617601067147   -4.15089993700110    1.45896172630610
H        -4.15721502902775   -4.06599876465717    1.71729110733457
H        -2.59732969138949   -4.72888689259313    2.22361665950586
H        -3.01262465305654   -4.64710159074381    0.49790546808802
C        -1.04803441561689   -2.85635348379133    0.81986951722296
H        -1.08309308689075   -3.15798699931316   -0.22198755153377
H        -0.49293333089622   -3.58919288274127    1.39747648587441
H        -0.55276623155915   -1.89322548784168    0.89482846827454
C        -2.95645431719591    2.37052108203773    4.40381349149393
H        -2.21614064102821    1.63867016958551    4.70655008453277
C        -2.79046906448830    3.36135126401996    3.41181944120329
H        -1.91632950314430    3.50663145210416    2.79024376110239
C        -3.90025582002679    4.22372730878929    3.46176354043124
H        -4.00554214059017    5.14173437266164    2.89654430525755
C        -4.74055084921975    3.79307000783524    4.51092519629345
H        -5.59550621403617    4.33252077015941    4.89895928228881
C        -4.16835211011174    2.64270393308142    5.08830960065974
H        -4.50322235835774    2.15452209505708    5.99507366909091
C        -6.30109884560915    2.87689909616662    1.02634342760145
H        -5.93564624497749    3.30496789967464    0.10125558912281
C        -6.72451463737592    1.53484816238205    1.20469542800698
H        -6.73156665303356    0.77118811132358    0.43515341916753
C        -7.33162582346313    1.44081238493243    2.47592916952745
H        -7.85688462083445    0.58200106457232    2.87356170897987
C        -7.26166333355584    2.70328231019419    3.09121691874569
H        -7.73675583834207    2.97090007069531    4.02708105179490
C        -6.64497693241138    3.59537044974526    2.18807190292045
H        -6.57858568447567    4.66974346395216    2.30582502832826
O        -3.55494941091969    1.58136176626001    1.42154343916569
O        -5.09313355678631    0.18455466854450    3.51705728186976
O        -3.27996254898612   -1.94044868563007    0.53812165356533
O        -2.43630874964555   -2.14691435754195    2.64843711372364
Zr       -4.81832271142000    1.90376297553682    2.78776133598313

