57
CSD_code = DEHKUY | q = 0 | S = 0 | Stoichiometry = C17H27CdN5O7 | MND = 7
Cd        3.11715036225392    5.43835280994479   13.03940492652775
O         2.53039514694954    3.95387201191527   14.42898036944835
O         1.53418501980837    5.83446012740685   14.41771209265764
O         0.80129508401747    4.24956181542982   15.63019751609802
O         2.61309359286961    7.02254028103009   11.62286780501620
O         3.62515395070794    7.53616462602084   13.42264471526173
O         2.77903564891993    9.06296096635461   12.20062395991265
O         0.60795051976886    5.11545842439524   11.94275586405364
H         0.78433065023730    5.86141924261710   11.35677956152341
H         0.03385476325379    5.46686668047790   12.63351291190129
N         5.33008957177494    5.16074063345802   12.75168034902270
N         5.80552179551742    5.18489909516404   11.49527481932643
N         3.20969677767343    3.81145380103780   11.43917893818147
N         1.60285555302170    4.67215536289453   14.84552203491375
N         2.99592478634255    7.90596961360504   12.42897169546082
C         8.04988084545631    5.12392381910470   10.26178891427207
C         7.15654838988317    5.09031118507055   11.47720561225076
C         7.54458177657736    5.00068126408249   12.80073282327939
H         8.54281560266754    4.91861301345298   13.17110530293306
C         6.37331588079944    5.04488166420193   13.56642713972019
C         6.26027207422446    4.90892351902849   15.06164982113618
C         9.50271225683055    4.91939788486493   10.71302415230553
H         9.80830564813770    5.69926901268858   11.40468188387325
H        10.16263098330027    4.95921664894921    9.84954678346630
H         9.62447076531715    3.95172903890532   11.19277775320686
C         7.96059457544703    6.49738479853455    9.58004411946439
H         6.95587333322829    6.72959847303982    9.23840894989775
H         8.62650811360236    6.52311810732095    8.72047141116678
H         8.26632533582414    7.27679413666380   10.27400420970530
C         7.70578691230563    3.99618568813869    9.27389851270321
H         7.46331260904808    3.08010100561561    9.80834592077799
H         8.56274685370549    3.79948204150292    8.63376556675770
H         6.87311626409624    4.25312236058974    8.62607203494354
C         7.63766596249140    5.07892702259732   15.71277900227082
H         8.31812917711677    4.28884468986907   15.40461718888854
H         7.53704590741007    5.03208001324271   16.79429148836218
H         8.07113518537789    6.04148905438573   15.45200132968017
C         5.30998270083724    5.96289674871795   15.63492231559363
H         5.63279485345773    6.96417677146253   15.35894963780638
H         5.28740612570246    5.88841613122066   16.71984172636143
H         4.29740204164313    5.81878585267776   15.25941848610847
C         5.72497989490471    3.50299759030473   15.37083677064188
H         4.73490763442110    3.36880505051197   14.94023246561161
H         5.65912219579313    3.36218191389286   16.44695168500901
H         6.38934470632244    2.74299800451521   14.96335696074496
C         4.86287217152418    5.23324387768480   10.40076879055001
H         5.39692704715192    5.33811822410464    9.46080840496065
H         4.20391958543500    6.09989289839665   10.53652635215000
C         3.99830241450139    3.99320030708418   10.38235545167255
C         4.03001145415216    3.09187396335794    9.32623905047600
H         4.66990990969958    3.26386166576937    8.47479353659905
C         3.21845708130446    1.96935398181150    9.37790536807826
H         3.21899740347059    1.25770079107597    8.56578801747681
C         2.41732930037197    1.77863568158710   10.49076749579971
H         1.77707039321028    0.91566857078190   10.57571285026946
C         2.44827759298464    2.72897938829259   11.49991608753763
H         1.84427781671916    2.62276265307200   12.38946106628781

