58
CSD_code = DEHNEJ | q = 0 | S = 0 | Stoichiometry = C13H38MoO2P4 | MND = 7
Mo       -0.00001542197625    2.82180355849875    3.46122116284715
P         0.00010986938276    3.10163183211654    5.81032315616902
C         1.37815940100027    4.10937251961988    6.49843259598157
C        -0.00001381434607    1.75966953486448    7.07214069537673
P         2.25383956436188    2.02566763523692    3.46127938844526
C         2.79187200303773    0.93196687158120    2.08915257533942
C         3.62104908289124    3.24071058924706    3.46126596950242
C         0.00003490619447    5.37354521562105    3.46124160736064
O         1.08816331992354    4.78756359499499    3.46116555705555
H        -0.00000987713425    1.20784322778987    3.46135247025185
H         1.22417028210938    4.30775230092626    7.56046426566068
H         1.43001057314622    5.05300712187956    5.95516088862797
H         2.32071778189737    3.58132239818129    6.36220070858235
H        -0.00001603794632    2.18136866308316    8.07784598503030
H         0.87944210915295    1.13596290638520    6.93860703597729
H         2.08951154266650    0.10101960487605    2.03855965631147
H         2.76515902238953    1.47860584686187    1.14961666553908
H         3.80123353642561    0.55687368635117    2.26255336859404
H         4.58367108638564    2.72740026936811    3.46126983478751
H         3.53132718143773    3.87410879876589    2.58112336031206
H        -0.00008076490787    6.49694310333521    3.46131751234517
P         0.00012163591277    3.10175739907704    1.11197171403462
P        -2.25415586889880    2.02559551538402    3.46128973679479
O        -1.08800892959146    4.78741425604206    3.46117178845243
C        -1.37803671229489    4.10928849746430    6.49839816293890
H        -0.87947428341228    1.13596222567102    6.93859078553106
C         2.79189544338441    0.93194445469821    4.83337954479802
H         3.53132683021330    3.87412427783893    4.34139638408619
C        -1.37817701950052    4.10934816108138    0.42413691159043
C         1.37830209443382    4.10945485272666    0.42410131413235
C        -0.00001699403797    1.75959732294134   -0.14964873493577
C        -2.79192615106356    0.93187718481621    2.08907192345942
C        -2.79195389731104    0.93184647701342    4.83346851011545
C        -3.62118270192526    3.24085118756954    3.46126014944180
H        -1.22411601183772    4.30762616890380    7.56044977100403
H        -1.42985362294343    5.05295808460119    5.95518355280902
H        -2.32062223539161    3.58129102011217    6.36209813689243
H         2.08953699328617    0.10099542408887    4.88396627074970
H         2.76519297576268    1.47856926694434    5.77292367006216
H         3.80125517271841    0.55685635720705    4.65995747717548
H        -1.22427587138282    4.30767090932074   -0.63791078728989
H        -1.42992724719616    5.05301501418414    0.96736570251815
H        -2.32074615130529    3.58132572900509    0.56048301751991
H         1.22432760213127    4.30780835537354   -0.63792815707556
H         1.43007458010279    5.05308964392938    0.96738387769290
H         2.32084380304761    3.58138318840849    0.56038588715959
H        -0.00002667333565    2.18127303887863   -1.15535654137866
H        -0.87948382026530    1.13589776710759   -0.01606166411181
H         0.87945661221389    1.13591466665683   -0.01608610095175
H        -2.08953760389477    0.10094988198403    2.03849104356236
H        -2.76513815747680    1.47853991797861    1.14954749624574
H        -3.80129908456161    0.55676372706073    2.26237486240361
H        -2.08956359815428    0.10092122705347    4.88404607848782
H        -2.76518063937628    1.47850240165723    5.77299584504097
H        -3.80132383368764    0.55673848704045    4.66013643991144
H        -4.58383468109860    2.72758462687180    3.46126674577973
H        -3.53140536326345    3.87425262569043    2.58111759421152
H        -3.53140193610029    3.87427137801812    4.34138713104119

