121
CSD_code = DEHVAP | q = 0 | S = 0 | Stoichiometry = C60H54N4O2Zn | MND = 4
Zn        7.13666155262980    6.05953796192350    7.13668942885546
O         6.60530999663409    6.95117321071830    5.64531151238164
N         5.52704508453497    4.97810600604307    7.36234604704798
N         3.38147375769210    4.69340772585523    6.84216492186986
C         5.51608945145930    5.94821026032482    2.36497316771335
H         5.72329278015838    6.19234616000818    1.33226594088669
C         5.93243443635495    6.32177181660979    4.73110661518304
C         4.96133356376950    5.32451031729914    5.01420702741321
C         6.43582251950493    9.12209948404764    3.14564946136492
C         3.50597285946770    4.39719951149854    8.18525107003244
C         4.62929476521284    5.01591786394149    6.38728637540397
C         5.36237638175439    4.34286223845265    9.77222496499288
H         6.40821361633111    4.48796280945986    9.99362115365024
C         4.35993077215942    4.61668265159935    3.96402268541434
H         3.71103792590350    3.78448405717655    4.19775864007421
C         6.15079505506646    6.64728700798551    3.36337333427101
C         7.84537153287181    7.58449338673603    1.77567295551752
C         4.63283107649816    4.90213559213294    2.64539962236277
C         4.86899312993650    4.58117948523472    8.49655306983160
C         2.13487311290026    4.90107885678087    6.12670851109413
H         2.41015379671249    5.28630430138575    5.13973066971724
C         7.12041290135549    7.77443595162852    3.08579503691216
H         7.85741662095322    7.74795107618251    3.89745314554085
C         2.61484181419346    3.97279359988747    9.16148815047413
H         1.56782454410366    3.81303879179856    8.95948827202907
C         4.46457620908488    3.92188759707690   10.73156834506722
H         4.81062369165239    3.72811429908649   11.73551642488896
C         6.59818176392659   11.49533451113199    3.53118822619970
H         7.18926188355841   12.35544165348331    3.81165740961784
C         7.34865453121156    8.09165853303351    0.58103298894743
H         6.43568218870854    8.66974369681891    0.58396281229676
C         8.01815203544920    7.87038939470171   -0.60989147934087
H         7.62001449189842    8.27128185615805   -1.53124184000100
C         9.69848105586359    6.63481138950281    0.56205587332917
H        10.61840674266001    6.06734779264277    0.56189045111757
C         5.09500950855678    9.28573626934264    2.82453220334887
H         4.50025932775200    8.42490598662319    2.55339608256906
C         4.00872800369125    4.12398717695447    1.52491747363244
H         3.38201189028240    3.32255977754836    1.90909132156920
H         4.77872711863399    3.68880534851419    0.88892029324883
H         3.39524119996409    4.77584854012663    0.90307147960616
C         4.51141635027447   10.54071377699914    2.85638103202522
H         3.46607153872941   10.65271092787715    2.60423611955085
C         3.11537889204202    3.74249579639731   10.42880640552940
H         2.44200239349545    3.41049770942197   11.20487442758929
C         9.03045709655929    6.85956721220671    1.75202960212129
H         9.43007060827052    6.46647527205313    2.67613770106516
C         1.29425514158693    5.97122269527311    6.82443957037091
H         1.87873174995045    6.88027285240628    6.94797847699889
H         0.95628374215047    5.64280318883863    7.80254361305953
H         0.42349026460287    6.20059485892845    6.21583576078690
C         9.19291951908229    7.13841579504871   -0.62442977247868
H         9.71356963295021    6.96501329013684   -1.55508432633879
C         1.36957816316344    3.59013503464577    5.95334043068571
H         2.00195154021225    2.83688589116817    5.48861940531894
H         0.50335239342975    3.75449614945301    5.31790834395182
H         1.02875873183696    3.20281853117160    6.90881844911257
C         7.17938119443052   10.24123927362884    3.49913056286117
H         8.22301822465167   10.12526316942161    3.75474504259991
C         5.26063945243154   11.64953788169334    3.20807755728308
H         4.80425950782525   12.62860329163112    3.23295666250489
O         7.66800998532076    6.95118480394949    8.62806283544823
N         8.74628113584895    4.97810845177281    6.91104423546373
N        10.89184663107848    4.69341243204984    7.43125055322294
C         8.75716674082124    5.94820178848995   11.90841660126840
H         8.54994726537634    6.19233494354001   12.94112134794143
C         8.34086614745919    6.32177729142517    9.54227789120984
C         9.31196359297397    5.32450894787314    9.25919029168970
C         7.83749360933378    9.12210423084468   11.12774946575582
C        10.76736456957603    4.39720854489397    6.08816191023054
C         9.64401981176791    5.01591923783232    7.88611451737219
C         8.91097975511858    4.34287118323362    4.50116589911624
H         7.86514466285669    4.48797082659262    4.27975812558836
C         9.91334413688655    4.61667282294909   10.30938137284572
H        10.56223671171592    3.78447187481716   10.07565246613387
C         8.12248670418617    6.64729049306766   10.91000847630123
C         6.42788440776186    7.58450911180156   12.49767601293100
C         9.64042112993790    4.90212070659225   11.62800104171363
C         9.40434754566686    4.58118642493603    5.77684410831824
C        12.13843687471010    4.90108301801376    8.14672511911322
H        11.86314111660433    5.28630077806273    9.13370176659437
C         7.15287944253634    7.77445140780325   11.18757379967213
H         6.41589578188423    7.74798589807577   10.37589674361170
C        11.65850843130278    3.97280818446296    5.11193419442337
H        12.70552385427619    3.81305634740303    5.31394598671324
C         9.80879215664814    3.92189950974257    3.54183255733977
H         9.46275676339041    3.72812445246688    2.53788059894271
C         7.67518195447700   11.49534568567964   10.74222850536693
H         7.08412176114414   12.35546576272399   10.46175719576408
C         6.92458070818622    8.09165171701004   13.69233408798219
H         7.83756185080418    8.66972349451731   13.68943329752596
C         6.25504757936281    7.87038711684475   14.88323895461156
H         6.65316775834275    8.27126869996434   15.80460205829672
C         4.57472128930819    6.63486078100503   13.71123643324742
H         3.65478887199745    6.06740742603298   13.71137219919958
C         9.17830185672850    9.28571563384693   11.44889985910366
H         9.77303219517658    8.42487288347952   11.72003970792821
C        10.26449622578308    4.12396036704356   12.74849071593946
H        10.89120571226508    3.32252442131774   12.36432374009049
H         9.49448104025745    3.68878820859095   13.38447514887768
H        10.87798391892886    4.77581071217218   13.37034762807638
C         9.76191608683380   10.54068414951964   11.41707585518860
H        10.80725638256204   10.65266205363672   11.66924732439954
C        11.15798657793781    3.74251121024025    3.84460975989994
H        11.83137290651026    3.41051609212455    3.06854900152031
C         5.24278216268258    6.85960935491260   12.52128271665260
H         4.84318717367760    6.46652683120793   11.59716221838731
C        12.97906003176197    5.97123436719076    7.44901186667796
H        12.39458087742650    6.88028237088855    7.32546900255673
H        13.31704705343650    5.64282117717259    6.47091102916738
H        13.84981500185732    6.20060772393797    8.05762939691859
C         5.08026282522901    7.13844084122096   14.89774036147291
H         4.55958530991887    6.96504135072451   15.82838080635940
C        12.90373435446249    3.59014105920092    8.32009546859733
H        12.27135637923887    2.83688608735551    8.78480067418585
H        13.76994940514400    3.75450072163242    8.95554261737818
H        13.24457065208039    3.20283327143947    7.36461996217601
C         7.09396130956181   10.24125946328343   10.77426192217373
H         6.05032850622491   10.12530264356073   10.51862197317401
C         9.01271941019284   11.64952375407612   11.06537179410788
H         9.46911507671902   12.62858230789760   11.04051388731706

