43
CSD_code = DEHZEY | q = 0 | S = 0 | Stoichiometry = C14H16N6O6Pt | MND = 4
C         1.39926610240726    1.01710521885619   -1.19166528901921
C         1.31267356259127    0.39766272477719   -2.45089202208674
C         1.14038046527337    2.41914126363064   -0.91493933911060
C         0.65017088685441    4.70619303060185   -1.52514419603789
H         1.44014520721494    5.43246937481365   -1.73881485217662
H         0.38812876403704    4.74470658000831   -0.46849981676562
C        -0.57200363161279    4.99685619089468   -2.40561534914989
H        -1.38256223076469    4.30037841808434   -2.14214465172713
H        -0.91404264371428    6.02207393079679   -2.25897838103832
C         0.21846371565195    3.58746944959075   -4.08047386002081
H         0.45785609707192    3.59296835406269   -5.14394714425881
H        -0.55976283005753    2.83438457615295   -3.88703997990661
C         1.46519030737975    3.25248717442984   -3.25031770992616
H         1.82753166134909    2.25673506506863   -3.48815782107128
H         2.24868324123255    3.98517479316378   -3.47525510723795
C         2.07747071026784    0.00574999190424    4.04733682243237
C         2.67315046953625   -0.90882029637315    4.93430609478883
C         1.44199906765208    1.25996342989806    4.40715792233859
C         1.01369973867462    0.72179087841618    6.80533163879420
H         1.57634181004001    1.16549464787477    7.63300928375567
H         1.41518233236000   -0.26364519627755    6.58752655124691
C        -0.46738392351673    0.60829593809957    7.20105104505694
H        -1.02136293315385    0.11065428901151    6.39015099437987
H        -0.56940858346463    0.02671039537451    8.11765431602692
C        -0.93028904909874    2.71645758438038    6.34369873237064
H        -1.36935296013228    3.67026081989244    6.63825039978492
H        -1.50111600656879    2.29607602786378    5.50200643661073
C         0.53150275943247    2.90288701649694    5.92302936988695
H         0.60081844630932    3.51286717211244    5.02329220943458
H         1.09049928584408    3.37134455949723    6.73840533801867
N         1.55340982936586    0.26066506001731   -0.08834097426814
N         1.21542398040109   -0.14179117515515   -3.46086408985619
N         1.13509219401648    3.37547669939680   -1.84756349287204
N         2.21045128064238   -0.18142264527715    2.72016882620986
N         3.18551794332049   -1.67055024171267    5.62534741158770
N         1.12060032355239    1.60006002632659    5.66041681495977
O         1.64725665673968   -0.96498020808471   -0.13294163592659
O        -0.25493947683206    4.87703680444621   -3.77185186025731
O         0.88659760160802    2.73765561025937    0.28490979145759
O         2.83260870629657   -1.13036662250089    2.24526184466254
O        -1.02528241861633    1.87145549408436    7.46605686798374
O         1.23936880636237    2.09728457701184    3.47806283589680
Pt        1.48412473404082    1.18908321809415    1.58981602502388

