25
CSD_code = DEJBUQ | q = 0 | S = 0 | Stoichiometry = C10H8Br2Cl2N2Pd | MND = 4
Pd       -0.00181504675991   -0.00030267531151   -0.00154468544124
Br        3.88273256324306   -3.12998482237773   -4.29586582778311
Cl       -0.55616906451684    1.52367013643456   -1.61433234831238
C         2.76697173580948   -2.23005016677771   -3.06028392733237
C         1.60710632940822   -2.83519802253404   -2.59470473458645
H         1.32301481772985   -3.82176507600409   -2.92409596222176
C         0.82389947573443   -2.14064871982916   -1.69195044726507
H        -0.08773178296099   -2.57757979736587   -1.28792062573163
C         3.10111256140875   -0.95905520477308   -2.61183491047234
H         3.99471342624188   -0.46395757591107   -2.95660628297607
C         2.25484354987817   -0.33952079694770   -1.71129662998315
H         2.46658704259059    0.66191631582270   -1.34046222302233
N         1.14129493962120   -0.91907817311496   -1.26128394669649
Br       -3.88253790575826    3.13023249638835    4.29589813454290
Cl        0.55652488471363   -1.52252201505813    1.61370543574420
C        -2.76686210909590    2.23017508496136    3.06033159986457
C        -1.60688096749768    2.83513345503862    2.59472835894016
H        -1.32278158083832    3.82175610999403    2.92393430484678
C        -0.82358749749437    2.14029693674598    1.69223574518176
H         0.08799030867776    2.57717081425836    1.28802016917238
C        -3.10109914965377    0.95915226746059    2.61205377317193
H        -3.99481198409558    0.46421076456160    2.95676300387832
C        -2.25477145066167    0.33935262229093    1.71175999209615
H        -2.46670856950576   -0.66201992393925    1.34088319512305
N        -1.14103452621776    0.91861596598700    1.26186883926214

