79
CSD_code = DEJBEB | q = 0 | S = 0 | Stoichiometry = C38H34Cl2O2P2Ru | MND = 6
Ru       10.82356226282980    9.96003986528985    8.83631254044295
P        11.64049186967800   12.12844514895504    8.62192566452745
P         9.82466319328608    7.88429674144397    9.16504778966689
Cl        9.63091409107870   10.18885797979745    6.80649769524288
Cl       11.30249660388734   10.06312039639042   11.17001624724961
C         8.08525285453037    8.02385289894904    9.65858844337703
C         7.78822978089939    8.34632932682895   10.98256177273716
H         8.59616252664540    8.46039806886666   11.69535903879333
C         6.47318798650612    8.52101518009139   11.37170552794338
H         6.24257167600138    8.76202249912811   12.39971560657156
C         5.45111885068301    8.38948348702856   10.44272077192907
H         4.42391163889220    8.52196888193351   10.74989990843458
C         5.74751969228350    8.10316983297243    9.11973340865901
H         4.95189659250437    8.02033098074473    8.39393840598209
C         7.06157679949460    7.92743437300415    8.72208634262681
H         7.29995046011826    7.72146917633611    7.68793839243742
C         9.77948172167035    6.70009155242523    7.78097376815292
C         9.06145520032387    5.51274913628089    7.90453459314715
H         8.50237180439266    5.31145496788213    8.80754681880350
C         9.05737439602784    4.59577257738129    6.87155925126674
H         8.49487597848772    3.67854959700353    6.96991347908404
C         9.77288115840891    4.85103805540655    5.71165177466927
H         9.76624238082838    4.13194065545029    4.90572213117461
C        10.49195903516471    6.02694381684134    5.58745584544076
H        11.04779542597718    6.22981260029041    4.68427080351863
C        10.49860964434735    6.94976946497470    6.61929531900640
H        11.04276687622478    7.87901053895630    6.51715547228685
C        10.54694117348114    6.81441312843839   10.45294836829456
C         9.79016091449485    5.93354360746785   11.21865208028705
H         8.71466267160588    5.89954131247663   11.11219635663814
C        10.41020313529065    5.10798317867224   12.13896646551411
H         9.81520854010238    4.43108406502407   12.73515089779166
C        11.78488347609640    5.14956791694947   12.30045455182428
H        12.26293190359463    4.50661827555379   13.02477302463266
C        12.54350699029570    6.02067075795288   11.53647767409164
H        13.61520419138138    6.06019354280639   11.66257815500216
C        11.92780859486129    6.84729704232144   10.61554679736330
H        12.51386739955982    7.54164791339263   10.02707145283765
C        13.02623191096000   12.60122720440333    9.70914249997435
C        13.98468663671067   11.63243168228882    9.98683085297106
H        13.84709242939019   10.62777858523828    9.60840007442435
C        15.08882815725413   11.94141640929792   10.75869607648495
H        15.82274035348280   11.17990712958209   10.97647792608481
C        15.24785229154229   13.22365060963404   11.25720985051829
H        16.10671440572650   13.46623361552346   11.86552875315730
C        14.29988264856310   14.19407370658244   10.97977317422576
H        14.41952944327371   15.19483963648753   11.36935248953191
C        13.19365628417289   13.88905866826992   10.20751912430442
H        12.45529178544811   14.65383935920948   10.00968979633883
C        10.37983530077195   13.38135622550407    8.98163552448057
C         9.65662124895027   13.99125862585073    7.96236144425871
H         9.87601210727325   13.74949696551673    6.93177704357020
C         8.65807806968180   14.89722901547045    8.27549837226132
H         8.10180164223927   15.37718752872202    7.48380084264321
C         8.36767740474342   15.18593482174829    9.59928392925479
H         7.59056160111382   15.89691787727229    9.83935453703202
C         9.06405036761501   14.55226091051799   10.61834739107026
H         8.82506988119490   14.76462584953603   11.65073424697599
C        10.06325616250815   13.64668976076838   10.31384222009395
H        10.60544134404717   13.13513065892690   11.10014391747148
C        12.32171126439536   12.65819093452530    7.01711911644471
C        12.70329250825670   13.98445118558704    6.82709689443833
H        12.56368106531574   14.70506479973561    7.62062461485503
C        13.25411005941300   14.38047474887742    5.62391730860763
H        13.54439700810318   15.41107261261260    5.47951135810786
C        13.43423734786254   13.45846715592879    4.60411241681642
H        13.86430372406346   13.77235381426848    3.66431203363951
C        13.06116868941585   12.13898581286501    4.79103698969802
H        13.19750416520078   11.41942846342434    3.99766858429433
C        12.50833186864284   11.73671911123470    5.99483436908554
H        12.19729912394313   10.71051622776536    6.13703098096032
C        12.36566023406986    9.22374059972408    8.20224198165775
C         7.64829151127910   11.37945338924141    9.31486181166736
H         7.61722644084725   11.24656650024120    8.23284693290279
H         7.53622153928678   12.44253145975797    9.55042234816190
H         6.82840840030852   10.81509424511089    9.77060172893997
H         9.00470054719667   10.98216115706038   10.71431971234646
O         8.89779001140086   10.89408207880694    9.75133481195339
O        13.33785352236149    8.76027231526604    7.78936328079668

