57
CSD_code = DEJHEF | q = 0 | S = 0 | Stoichiometry = C18H31I5N2Pt | MND = 5
Pt       -1.08904155103718    6.17628507146438    7.52599080820418
I        -3.79141861876628    5.78021494731602    7.12937260434468
I        -1.67845166067880    6.03921826316999    4.48847236842687
I         0.18372578052074    6.24902669456897    2.51396187645269
I        -4.57647257975458    3.10265176849930    5.17617479875632
I        -5.19935508191109    0.99545157734983    3.60871333549460
N        -0.99628466235454    8.46973233252374    7.62406127538964
N        -0.30789046875014    4.03069747549122    7.76260902626673
C         0.81336325109887    6.46697194993853    7.14592984539799
C         1.65284150089527    5.37179812732485    7.00517907209982
C         2.98877832780369    5.57884502468743    6.68855698372343
C         3.45929141539872    6.86783604289701    6.49842696006898
C         2.60063771301307    7.95356710208581    6.57090965818451
C         1.26497165614980    7.75492940972005    6.88785111175558
C         0.21713016668283    8.83440050605849    6.84692640404511
C        -2.16030351015664    9.03442026255543    6.93420302041326
C        -0.93197081096283    8.94596588812679    9.04465074695598
C         0.44762968013693    8.66013545360813    9.64650886292065
C        -1.20723239094115   10.45064387063916    9.17636454368537
C        -1.97060480688680    8.17231046640582    9.85998503303246
C         1.01070661082613    4.01205378918692    7.07119002311958
C        -1.20805175357448    3.12014484929467    7.05102753295138
C        -0.20056723805484    3.65977778024721    9.21005302546465
C         0.18635890526002    2.19034185294429    9.42967896982133
C        -1.54982274476134    3.91127661367230    9.89232297704663
C         0.83894438646323    4.55727528396809    9.88420146934572
H         3.65605946384613    4.73608180995992    6.57468879363151
H         4.50007394126539    7.02579663267747    6.25914985133160
H         2.96789931321133    8.94925773328474    6.36643866301969
H        -0.08439738907247    8.94010204167623    5.79877308541509
H         0.61049143875562    9.80663174137259    7.16065879093981
H        -2.03084768758606   10.10172343350938    6.73622617836089
H        -3.06451913799572    8.88285416927104    7.51670708210257
H        -2.29629146877084    8.52770662747319    5.97970170652660
H         0.40807686887683    8.81661650627180   10.72112583874835
H         1.21598086897726    9.31240329886202    9.24285724469482
H         0.74056475721870    7.63125384064013    9.46058111508067
H        -2.24817243821013   10.68898546975695    8.98032346813505
H        -0.57914231158091   11.03656975138564    8.50918147247696
H        -0.98249636682174   10.75715487488734   10.19442665876684
H        -1.89020824181846    8.43374042758539   10.91103816170919
H        -1.78684182107194    7.10020147902067    9.75227991563487
H        -2.98699334918709    8.37634854082842    9.53740485437247
H         1.68038858487258    3.26992290777118    7.51537340026323
H         0.83726572970688    3.69619383097959    6.03635314608872
H        -1.40018608692615    3.50917622581820    6.05142834853154
H        -2.16221832178068    3.04015612087435    7.56417350457985
H        -0.77390744180362    2.12178472220759    6.94609536972343
H         0.32344507850597    2.02647758011853   10.49518429110261
H         1.11747319560652    1.92659513733227    8.93439575393818
H        -0.59389579346527    1.51535522680202    9.08999954238020
H        -2.28066956893731    3.14264869372862    9.66020458717596
H        -1.95334805164598    4.87543009827709    9.57904035643265
H        -1.42001145781946    3.92897689306467   10.97051684724562
H         0.56468833243643    5.60005552810181    9.73354072138604
H         1.83925270560211    4.40085792557244    9.49272149080973
H         0.85867513981466    4.35676832695902   10.95188742597712

