44
CSD_code = DEJJOS | q = 1 | S = 0 | Stoichiometry = C20H19IN3Pt(1+) | MND = 6
Pt        8.09038226877852    3.72109997673966    1.96808155522537
N         6.43989823522878    5.22515034765465    1.84067281316146
N         7.42536036132871    3.72110029404892    3.99280969419195
H         8.18160053161702    3.72110051247867    4.68498241140775
C         9.50844547490517    5.18387554288870    2.32339708667574
H         9.13375065148442    6.11791813012931    1.89896200899310
H        10.47003813532671    4.96348485324062    1.86507876837574
H         9.65238192019674    5.30906392414401    3.39895338704814
I         8.68341436582632    3.72109987318793   -0.57512542681466
C         5.94195940156853    5.86085681204515    0.80854578704528
H         6.25926756961365    5.52721517869017   -0.17088466572369
C         5.05120790862319    6.93711876885579    0.93167860009860
H         4.67086734888327    7.41239558837535    0.04261442423373
C         4.70873805665079    7.37477118724978    2.18244743962983
H         4.05166875573852    8.21968278971017    2.32225947288701
C         5.23641966237685    6.71933579633051    3.31619115528634
C         4.97640486902314    7.13854843222807    4.63584311448830
H         4.32800481454680    7.98612566930154    4.79334012313663
C         5.55768119547087    6.49360349149834    5.69209791984456
H         5.38479661430547    6.82948387237402    6.70190485026818
C         6.38098317082689    5.37959512579037    5.47898000819515
H         6.82367722208125    4.88984926303628    6.33354703252856
C         6.62746074624289    4.91841336126326    4.20937650919178
C         6.09206821558758    5.60709515179034    3.09381607045857
N         6.43989662225179    2.21705126733320    1.84067305735924
C         9.50844438982804    2.25832355576276    2.32339762330064
H         9.13374683605158    1.32428048823623    1.89896605566586
H        10.47003602272565    2.47871144210657    1.86507593472169
H         9.65238377167961    2.13313782965875    3.39895378047713
C         5.94195747396443    1.58134496731881    0.80854610643185
H         6.25926479959578    1.91498718613074   -0.17088441958166
C         5.05120680015228    0.50508232816349    0.93167908477176
H         4.67086588749131    0.02980569439464    0.04261496165332
C         4.70873806825728    0.06742917677723    2.18244796630837
H         4.05166914254654   -0.77748270477750    2.32226005930408
C         5.23642023679812    0.72286424731021    3.31619160456135
C         4.97640679976541    0.30365085033713    4.63584359567365
H         4.32800734177761   -0.54392681094234    4.79334075577968
C         5.55768373492336    0.94859555872150    5.69209821283701
H         5.38480013471862    0.61271460940167    6.70190512128863
C         6.38098516440688    2.06260430356688    5.47898017950938
H         6.82367996331560    2.55234973516985    6.33354707270285
C         6.62746133353543    2.52378686413198    4.20937670222389
C         6.09206797998116    1.83510546814802    3.09381640517572

