90
CSD_code = DEJSAN | q = 0 | S = 0 | Stoichiometry = C33H45ClCuN7O3 | MND = 3
Cu        6.89133951422535    7.61574385304672   16.59897670414410
Cl        7.74977171600632    9.08267458005296   18.12842374672171
N         6.08320321441957    6.23077634175095   15.15381006406117
C         4.65833133843629    6.47934959041107   15.13292910698988
H         4.22992848858032    6.06788308274356   16.05236752843754
H         4.16583124877633    5.98394387538721   14.27908206882784
N         5.26022352240939    8.77411019677618   15.63561261188417
C         4.35864389659190    7.95620773816377   15.09845185824783
C         3.18287580788081    8.41698709803828   14.53014311647686
H         2.47540580452398    7.72331814534916   14.10372824671635
C         2.94183364802080    9.78418084009451   14.52613677613728
H         2.03118538556406   10.17700179470680   14.09994408511751
C         3.88013552929360   10.63818646012671   15.06298199028975
H         3.74019938711798   11.70458334546563   15.05970718091065
C         5.04942623736993   10.09498751626766   15.61039241845714
N         6.04959399334059   10.87138708847476   16.14872004260738
O         5.46135524545412   12.92410479984535   15.37015887938474
C         7.47056818609589   12.78316594257894   16.69121250756558
C         8.72575006555155   12.04423911939478   16.21405049710910
H         8.74767385929976   11.01710092687674   16.56465359847927
H         9.60866544722720   12.54528811192496   16.60433404204252
H         8.78242702528817   12.04570565341362   15.12722507981829
C         7.30403175932137   12.63627757288905   18.20825563090940
H         7.31756311394369   11.59403975647894   18.51099279089168
H         6.36822596338163   13.08591959767091   18.53345107037832
H         8.12308166709747   13.14305947531816   18.71320514044834
C         7.58584151037798   14.26638037589566   16.33085989344673
H         8.44848532110950   14.70662914681996   16.82446696474753
H         6.69160246442520   14.80085564116469   16.64030969526122
H         7.69461201800145   14.38826272341683   15.25600982247212
C         6.73737846851949    6.55844166140810   13.90579999690079
H         6.32117949727920    7.50442726908039   13.54518453184908
H         6.55832960229971    5.79236439265690   13.13241899265760
C         8.22084412641783    6.74185637985049   14.09880378244564
N         8.63078910647364    7.16955987351158   15.29039797744444
C         9.09990006493233    6.47239214496422   13.06340470982735
H         8.73043332031158    6.12687786157492   12.11071053824767
C        10.45802485339214    6.65823642142195   13.28388517393355
H        11.17060761267644    6.46539463944728   12.49627918173364
C        10.89077303937160    7.08186756802818   14.52112491519608
H        11.93558724971786    7.21703733135753   14.73767237207001
C         9.93935025471398    7.32562139169799   15.52015391124348
N        10.28061566206961    7.73410267456313   16.78874051771713
O        12.51436016301385    7.31390039053609   16.78498568805105
C        11.52690004296406    7.70263842699896   17.36769485166495
C        11.56519501342249    8.19714101596272   18.81482131924848
C        11.20809838126959    9.68792555112431   18.84211881156670
H        10.16899257462134    9.85331854079400   18.57591794822085
H        11.84139096690135   10.24369090503951   18.15382522168166
H        11.36359071091715   10.07913967330441   19.84479085382790
C        12.98945448842782    8.00303503803172   19.34096045559564
H        13.69807726614791    8.54796197995803   18.72287139949243
H        13.26262028806233    6.95102801723931   19.31677540991098
H        13.06393320527326    8.36299635550150   20.36394408939829
C        10.58879473553171    7.39379283939366   19.68111800723202
H         9.55508378056870    7.60208766773419   19.42355641590759
H        10.72949252105335    7.66209872753432   20.72568087101274
H        10.76917132142749    6.32595922218244   19.57348189223706
C         6.42476473726185    4.91531381277523   15.64981073227901
H         7.49821753303535    4.76475369789510   15.49767515112932
H         5.89061587052165    4.11750502742576   15.10655859115687
N         6.19775477515291    5.91582527284738   17.84533181814928
C         6.13919865320672    4.79852426508990   17.12517582514368
C         5.83285200264359    3.56956546242022   17.68494715359933
H         5.79489058242387    2.68452059814655   17.06948883892431
C         5.57847523662744    3.50919186292474   19.04852638264026
H         5.34469780580652    2.56622867555916   19.51907402887898
C         5.61673799670672    4.66574002764805   19.79617130721045
H         5.40379068803402    4.66386983315634   20.85044315489688
C         5.92675290399739    5.87161076682756   19.15442752579075
N         5.96959592839873    7.07760728656052   19.81497277155437
O         4.92467225214956    6.53606354552412   21.75912677065476
C         5.46394651788990    7.36459127565442   21.06032527845596
C         5.63487148485700    8.82249006571087   21.49101650284739
C         7.12957250199885    9.12088691838128   21.65664539683087
H         7.25564463868956   10.11427892533472   22.08083696560332
H         7.64874825048418    9.09549676969730   20.70381279160183
H         7.58953058788918    8.39884587417039   22.32804704356292
C         4.92558946095282    9.00277292489977   22.83538379584888
H         5.04594536525857   10.02348753451872   23.18930062324782
H         5.33908422224945    8.32206913734125   23.57481282946155
H         3.86466947143840    8.78680404792460   22.73652497549680
C         5.01014918916137    9.76390724737388   20.45519600992234
H         5.01216808685574   10.77956598276485   20.84422014056284
H         3.98082720630219    9.47784638666460   20.24756957486106
H         5.56755848535207    9.76665292613408   19.52366539784437
C         6.22507900685975   12.22629013428934   15.99902793347201
H         6.38158797398478    7.83700940175238   19.27243615176484
H         9.49063672641891    8.04297856949933   17.35592319310134
H         6.75229316092835   10.34656139205957   16.66991234826697

