71
CSD_code = DEJTAN | q = 0 | S = 0 | Stoichiometry = C21H46ClP2Rh | MND = 4
Rh        1.68063147386681    0.67256512698970    3.70949719449998
P         1.31085090933494    2.57456413388365    2.46725430354891
P         2.05422951411140   -1.23350945616596    4.94256127707837
Cl        3.81239488927799    0.64943995683936    3.03304250797578
C        -0.09506359551191    0.67237645057211    4.23491725457701
C        -1.35537861075252    0.64933575356766    4.55263179348537
C        -1.97969062219924    1.20432498719876    5.80619294819724
C         2.57192845636711    2.97142293702303    1.14055856640436
C         2.66014530687962    4.40104939038765    0.61599135129685
C         2.43157789829118    1.97095223106952   -0.00465048615446
C        -0.40720417957310    2.69356445189338    1.73268287550167
C        -0.73228767086569    3.92636314526213    0.89903344823305
C        -0.75467976960959    1.40866673497813    0.98221793213643
C         1.41268934063352    4.08512656657535    3.56093979643479
C         2.74229244246516    3.98888355977222    4.30712363314370
C         0.26483539554555    4.12163254068434    4.56394094566327
C         1.51382611595434   -2.74479476066077    3.98711916549886
C         0.00224503168921   -2.76800200192234    3.78750543607583
C         2.20646307374617   -2.67335900064904    2.62749809382105
C         1.04456562744345   -1.33727198465582    6.51552741942847
C         1.21521633091008   -2.57750057480501    7.38328711106851
C         1.21247343718576   -0.05865072072399    7.33454237219211
C         3.84108139956199   -1.64173130155646    5.32845392544897
C         4.38867988716887   -0.62579561474973    6.32865334172442
C         4.19880594096731   -3.06632517897445    5.73964725894131
H        -2.06428543283148    0.19292251925409    3.86505689288222
H        -1.22323683987690    1.63740748266436    6.45519802742677
H        -2.49827355926474    0.41384227552364    6.34982584775577
H        -2.70862009660654    1.97523631997792    5.55344036788645
H         3.51766804663851    2.74224310892687    1.64829936241152
H         1.74012945417088    4.72170679207745    0.13736842936356
H         3.45613645520155    4.44729769598700   -0.12731584817278
H         2.90853895352700    5.10634773391014    1.40497335357489
H         2.27195566628659    0.96799226891377    0.39337898297243
H         3.34055421640597    1.95522987712193   -0.60435286760531
H         1.60128432042648    2.23131536259539   -0.65746473642749
H        -1.02895815916344    2.71052854637767    2.63640241160604
H        -0.42493384447430    4.84037474362988    1.40191012666889
H        -1.80828226443225    3.97905299023479    0.73169166237692
H        -0.25124284359138    3.87860548259065   -0.07475501773030
H        -1.83521894778148    1.30017192387662    0.89765535341071
H        -0.36082856990900    0.54512072953753    1.52504450460308
H        -0.33772062456580    1.40519970461700   -0.02077207923966
H         1.38914027643083    4.99491890310146    2.95231889160633
H         2.84516170214498    4.79896950530725    5.02845843212167
H         3.58836136413805    4.02647734023408    3.62421495695589
H         2.78402308682580    3.03505380938337    4.84608950886377
H         0.44975938284180    4.89001554151742    5.31394745688407
H        -0.68470095389710    4.34325425762310    4.08301974571530
H         0.18731349787157    3.15769447969234    5.06704416156759
H         1.82030367198057   -3.65282682926214    4.51670631057056
H        -0.26790455568606   -3.56012490637209    3.08981678020017
H        -0.32818312715608   -1.81506104108148    3.37399330413647
H        -0.52605045261982   -2.94721203735914    4.72070111583418
H         1.87673542919842   -3.48443396088313    1.97903654767037
H         3.28845457428358   -2.72912924624571    2.72481785441624
H         1.95765600040651   -1.72057771867652    2.14694370292804
H         0.02183138040424   -1.32726973348986    6.11841590406482
H         1.17624938452928   -3.48847992759199    6.79062264567832
H         2.15672031686245   -2.54860784229116    7.92615400404602
H         0.41250675631726   -2.61979388751481    8.11974190679732
H         0.37318737770953    0.06707859874344    8.01722203389618
H         2.12463634248411   -0.07728373510785    7.92406677435813
H         1.24997322117320    0.80475858355421    6.66431559364947
H         4.33178956430372   -1.43717173200166    4.36811677160627
H         4.08086823598353   -0.86486081661416    7.34428252539214
H         5.47733583925812   -0.61802621154707    6.29891469565085
H         4.03687178108801    0.37518952251863    6.07490678332659
H         5.27765796168573   -3.12213333120557    5.88562275435141
H         3.93525568293317   -3.78787611082859    4.97055078886788
H         3.72255230546445   -3.35806440325726    6.67060380885397

