63
CSD_code = DEJTOD | q = 1 | S = 0 | Stoichiometry = C24H35NP2Rh(1+) | MND = 8
Rh        9.41290618926345    5.07575345144794    2.98941975564051
P        10.41455497073581    6.72166057805246    1.87231266277859
P         8.23844924047584    6.70741699535208    3.95291272564007
N        11.24171704558494    2.82847854129081    0.83002547929790
H        10.88114451531231    2.51448586697303   -0.05475816183037
H        12.21753629498728    2.65951027332062    1.00459145357879
C        10.39184564884236    2.95376993394630    1.88604772594288
C         8.98891121914480    2.88378486434764    1.69172040887610
H         8.60302346577227    2.65642716775096    0.70718664109939
C         8.12555542377836    3.01911544277836    2.77200964662014
H         7.05971754340428    2.90335898193565    2.62400809927660
C         8.63712629868951    3.22134069818388    4.07223635377870
H         7.95937203881508    3.20924436548537    4.91683440739603
C        10.03002184865506    3.18857521505305    4.28858259689990
H        10.42724527869417    3.18840163421894    5.29543525925702
C        10.89953229898830    3.09326111111427    3.20303422025772
H        11.96798362658306    3.02230971366605    3.36253818389853
C         9.79123265710018    8.34992513503428    2.39307069673369
C         8.78650122809076    8.34298136600879    3.36268986988263
C         8.25703701004220    9.54679239618335    3.81361465688119
H         7.48073772585682    9.55661894730720    4.56445303933965
C         8.72260502731602   10.74513520848177    3.30095610854644
H         8.30856931410091   11.67723334001522    3.65363678452149
C         9.71608054212851   10.75099647660603    2.33439876564109
H        10.07571893932237   11.68750626390887    1.93665119331488
C        10.24857543668135    9.55771151360339    1.87886805780840
H        11.01956800964253    9.57211038903109    1.12239338849949
C        12.27622126676674    6.76438994193729    1.96655113384654
H        12.55807213179794    5.72155603054704    2.17249012632759
C        12.75795442436838    7.12537983550447    0.55965460449321
H        12.72531119725322    8.20621774938199    0.41532659679678
H        13.78822709951303    6.80154164234928    0.40806722993750
C        11.80762457542489    6.43988288208659   -0.41751046117827
H        11.93958551430553    5.35674931690010   -0.35494726659186
H        11.99747366310281    6.74826696039972   -1.44573622101160
C        10.38380242808746    6.80457112370979    0.01036289617271
H        10.17097445986005    7.84334650184957   -0.26617452857626
C        12.81481311954383    7.63779629950723    3.08950863029528
H        13.89530199700509    7.53314096301565    3.16249407836428
H        12.37244989287206    7.33903511577981    4.03929495942637
H        12.58276294127822    8.68629964641427    2.91988846132657
C         9.30613883237778    5.90289173304514   -0.57244937215798
H         9.29690554785983    5.96599966158861   -1.65853202736346
H         8.32610466935035    6.19880071190201   -0.19988970735950
H         9.48683648011585    4.86869490201232   -0.28563014867867
C         8.13458895930231    6.90544109171296    5.80442107714134
H         8.31158027493306    7.96592579892483    6.01618441317313
C         6.69012631448325    6.54345457416061    6.16193730213486
H         6.58409655689801    5.45683445285192    6.20174313958481
H         6.41921967961846    6.94385021970782    7.13894052519305
C         5.79329098521206    7.09942955440168    5.05975809841943
H         5.77291388484813    8.18906290642156    5.10641476008416
H         4.76788691661171    6.74398002108872    5.16609957443543
C         6.39031172527405    6.63842439710774    3.72837613379440
H         6.17001085305954    5.56954690060235    3.59830471429904
C         9.18460590854288    6.07927648711849    6.53343134162768
H         9.18342770668191    6.31219193028165    7.59606708468078
H        10.17527752311641    6.29269777902240    6.13203197664892
H         8.98305053559854    5.01696298001579    6.41730385944745
C         5.89911271134471    7.38701933722169    2.49878626348489
H         4.83300101800682    7.22249748252573    2.35830775783255
H         6.42444517601664    7.03293430743586    1.61236960789989
H         6.07202419170563    8.45640289043185    2.59458336646287

