86
CSD_code = DEJZUP | q = 0 | S = 0 | Stoichiometry = C33H49Cl2PRu | MND = 9
Ru        6.24586804743028    9.17712663114351    4.19814180732796
Cl        6.70006845349970    7.58738937865394    5.86923384647915
Cl        6.85383329740391    7.52089475250840    2.66050512428825
P         4.03372902591488    8.62755766066187    4.18366536933523
C         3.23074937505091   10.26198278746741    3.95451580223894
C         4.05753842735997   11.39394027996602    3.89841685290838
C         3.49086550836161   12.64741705974752    3.70810406764112
H         4.12376311942548   13.52139433281452    3.65227487416398
C         2.12059609597271   12.78777701490318    3.57785861829285
H         1.69345228746361   13.76859022716553    3.43264970171730
C         1.30388431027978   11.67086619961855    3.62040129059216
H         0.23543729723589   11.77716359183238    3.50587799121210
C         1.85758639406834   10.41603892669116    3.80063081459327
H         1.21651114340472    9.54845119791657    3.80962150648419
C         5.52644493754571   11.18707198949307    4.01590995986228
C         6.30798326752635   10.97318062621607    2.83137226366166
C         7.65529448856369   10.59904994241950    2.99380147211121
H         8.25738146327515   10.42516559144970    2.11113608450282
C         8.25145755107799   10.45684394631152    4.26107156877175
C         7.49595485325304   10.83694302145466    5.39217107587052
H         7.99038836328628   10.84780411295246    6.35606437309507
C         6.16249542217067   11.25595230753004    5.30278372581872
C         5.48001281121335   11.91436307092453    6.48235468629461
H         4.40121473620576   11.74141395950478    6.40408470366675
C         5.96898279929380   11.40930778236525    7.84226053849772
H         6.07156152542974   10.32738041738161    7.85692583069768
H         5.25851186883747   11.69569515949591    8.61394507211707
H         6.93101061747249   11.85027887166795    8.09587668044399
C         5.73437862700229   13.42614490762199    6.39187210664577
H         5.33670390037246   13.84083169811819    5.46973817399053
H         6.80307610167260   13.63125520377177    6.42748378589503
H         5.25775211290178   13.93085691093507    7.22883478686530
C         5.75327303795275   11.27237829484949    1.45584188053810
H         4.66684376062071   11.13313646105672    1.48562151859064
C         6.04437058108381   12.74144588459249    1.12189140858207
H         5.57820610142488   13.40929509223915    1.84232244061088
H         5.65842075319505   12.97880548634866    0.13350460096964
H         7.11750554545628   12.92509622578393    1.12735543787889
C         6.33178714352700   10.36632229466739    0.36630731225845
H         6.40910046167209    9.33912568817629    0.71567243761816
H         7.32016908336850   10.70457916225254    0.06194727743027
H         5.68826564293205   10.38741209095640   -0.50949421040612
C         9.69672771829044   10.04270973840464    4.41532628058198
H         9.94352459318701   10.07773223491207    5.48342605329439
C        10.62425717644744   11.01211054807102    3.67784080349951
H        11.66091749258942   10.75750564739433    3.88535599728993
H        10.44892475229384   12.03695738936272    4.00116860794217
H        10.47176522277597   10.95642836127748    2.60269935940927
C         9.90209904775555    8.60606982987955    3.93164392492157
H         9.22922314594523    7.93354065824126    4.46404507387273
H        10.92458747171245    8.28721996187322    4.12034087345259
H         9.70113056478968    8.51647301399957    2.86615501895899
C         3.34119647879911    7.91832969603105    5.75615947653904
H         3.95128231196852    7.01355151053455    5.89658942892472
C         3.66045196752238    8.87388470365342    6.90165631708231
H         3.07718636575477    9.79284469310453    6.78757009654548
H         4.72284770727648    9.11765775253781    6.85374017200220
C         3.34267399351906    8.22400777016818    8.24332689127948
H         3.98317139048148    7.34988916381733    8.37137809654381
H         3.56025490212418    8.92217329685139    9.05421599464642
C         1.87807542499860    7.80145658295628    8.29568456003259
H         1.66673162941163    7.30151092826649    9.24283531369510
H         1.24141109402552    8.68824046387748    8.23647007845180
C         1.55419806332621    6.86846323376320    7.13324183530302
H         0.49983043669259    6.58433637636970    7.16552568617436
H         2.15062677564981    5.95835287408082    7.22302205957566
C         1.86161016323258    7.54294270296525    5.79557757697567
H         1.24805458971053    8.44210034022681    5.70934682601253
H         1.60038886348872    6.86176199285934    4.98498023449186
C         3.24579308875772    7.59070356300147    2.86792871607724
H         2.15738113064290    7.64958249152131    3.00111493873876
C         3.61213995425202    8.14092744753717    1.49222207316700
H         3.25136808632132    9.16914207207410    1.39350766076952
H         4.69945930123371    8.13864006690721    1.40595607913996
C         3.02061327695126    7.27093189937030    0.38824722570411
H         1.92857339573303    7.28817218928479    0.44931811279842
H         3.30787293222589    7.67127967505244   -0.58591277288375
C         3.51844111997915    5.83707496659219    0.53237203495391
H         3.10384541318685    5.21377616594334   -0.26274406184327
H         4.60588151406863    5.82634544680809    0.44601828910025
C         3.12274394341423    5.28064648134847    1.89546093243743
H         3.48314495166369    4.25593423572125    1.99901299866603
H         2.03175763318339    5.26284869589212    1.97927625871502
C         3.70965189082304    6.14031782875119    3.01148020526004
H         4.80007604174565    6.11634012286971    2.95705034085997
H         3.41117664084568    5.73705894422728    3.98131367067528

