149
CSD_code = DEJZAW | q = 0 | S = 0 | Stoichiometry = C80H64N2NiO2 | MND = 4
Ni       12.42542348845028   -0.00000619505745    6.93789981331626
N        10.65133723308607    0.38084072655903    7.51172192861901
C        10.42459459558956   -1.29471937850785    9.23372029139066
C         9.97367000307230   -0.21142845288863    8.43993042589551
H         8.95093339016551    0.12118536596862    8.62398942517478
C         9.15902591734378    3.60486448231586    6.51615727826939
H         9.09051196412352    4.62165772686795    6.87610226800479
C         9.96792066430062    1.36932435772222    6.76425952307062
C         9.52273615947850   -0.46120794089387    3.50700811430847
C        10.71501645509031    3.02512334722825    8.46363951978166
H        11.66638032417357    2.48038042304063    8.34720156329479
C        11.67514048199787   -1.91244496687290    8.93808609762518
C         8.69186737744207    1.96534196598651    4.83133852235038
H         8.25452757666780    1.70738127688933    3.87744094525009
C         9.89976205051910    2.67833714901392    7.23424923065367
C        11.05503207216571    4.49696609853563    8.49433058803623
C         8.52691748314293    3.25266619924691    5.33213482088782
C         9.42121467408101    1.01820754650440    5.52718676794434
C         7.70324364954171    4.24859560125797    4.57216625796563
H         7.78637121025115    5.23933408737566    5.01200013120195
H         6.65377822985533    3.95370690834067    4.57966768661942
H         8.02550276819459    4.29697342086091    3.53315235525820
C         9.62538269342056   -1.79053566683772   10.27637956031753
H         8.68208556905748   -1.30206790081275   10.47611379491362
C        10.06004486982768    2.51401973414699    9.72204177969626
C         9.73928411063080   -0.36503165207411    4.99696763490142
H        10.82928798547472   -0.50608354631688    5.17064250621418
C        10.81895703101778    1.85737490782933   10.68286112271982
H        11.88271435504307    1.73192386779302   10.53314742442258
C         8.69373994646999    2.66344013664397    9.93064443287418
H         8.09403404803675    3.16682429128205    9.18505656327488
C        12.06305655493239   -3.01681868789970    9.73900029522848
H        13.01580776619732   -3.47847418489278    9.52269238907087
C         8.40830732618902   -1.07472432812041    2.95291432933037
H         7.66528295775573   -1.52174663837179    3.59730914605814
C        10.52026848873102    5.38091372262620    9.41919975187584
H         9.83735300841122    5.02334485847835   10.17606077661797
C        10.03414259379695   -2.85730204003192   11.03098156665467
H         9.41847554613904   -3.22990715322485   11.83512300678250
C        11.93986080262937    4.97775438469056    7.53334378231519
H        12.35696958401445    4.29077692671014    6.81073261693859
C        11.26330137584552   -3.46779576475360   10.75333049955456
H        11.58513143616423   -4.30802135508476   11.35233527526348
C        11.73558461228235    7.19554054218615    8.41932191127488
H        11.99686597815915    8.24326286039326    8.39071222949697
C         9.03388536354000   -1.43829592036922    5.79176830232731
C        12.27619749110640    6.31696693488487    7.49404664560232
H        12.96115594489599    6.67875701907680    6.74053524550868
C        10.47217255813746    0.10583906515383    2.66247130317435
H        11.34063323437395    0.59123535954412    3.08724263557445
C         8.24626353567180   -1.12029222146994    1.57838711838769
H         7.37509133551228   -1.60166095152737    1.15802158232794
C        10.22569919735383    1.35336920920969   11.82595793565584
H        10.82769952788982    0.83697181740845   12.55891171078499
C         9.08776529818296   -3.59834444208178    6.85588357839699
H         9.61860934908458   -4.51112330628652    7.08249825109276
C         9.19329734924641   -0.55230238408710    0.74446864720923
H         9.06412285450119   -0.58889388857039   -0.32728172276518
C        10.86077081935952    6.72335238537586    9.38116133958093
H        10.43755192665813    7.40258943232522   10.10716355075244
C         8.86414433461939    1.50434521114114   12.02494044435193
H         8.39841321485089    1.10803541627022   12.91527469186367
C         8.10035659734500    2.16361881009583   11.07618981669041
H         7.03709123560214    2.28511897270398   11.22695037665916
C         9.69267103682865   -2.62681475632270    6.08057760320400
H        10.69422139609165   -2.78818121681373    5.70610939460264
C         7.13774121697724   -2.22286212426170    7.04949273800003
H         6.13777328884566   -2.06159839017276    7.42626886373001
C         7.74579726739517   -1.24881676862821    6.27693624643297
H         7.22410071262487   -0.32714808896168    6.05787847024541
C        10.30823350844334    0.06217166507889    1.29094897525601
H        11.05210969295667    0.50847134811152    0.64682482434370
O        12.44439692281287   -1.52994665264481    7.98658990499307
C         7.80938303825140   -3.39601311846010    7.34710755658151
H         7.33875162197120   -4.14926054526256    7.96137900909175
N        14.19957972960579   -0.38073485466721    6.36425610212531
C        14.42655919274947    1.29507764080491    4.64252616253734
C        14.87738376532904    0.21170054526231    5.43625054568928
H        15.90015491361144   -0.12086868491355    5.25230264924545
C        15.69171883870003   -3.60500494327705    7.35924798959508
H        15.76024509342104   -4.62171579924111    6.99907231561073
C        14.88289852346050   -1.36938919813213    7.11158638102161
C        15.32798369031470    0.46043461328186   10.36925667582929
C        14.13585748282305   -3.02480152800576    5.41180189225643
H        13.18449912008328   -2.48005660580368    5.52829607764408
C        13.17584270384842    1.91258567380520    4.93788376157747
C        16.15881397127658   -1.96586296148319    9.04445532114374
H        16.59608336977915   -1.70813273992194    9.99844736276580
C        14.95104694685414   -2.67830277139637    6.64131677343408
C        13.79579253825425   -4.49662522879153    5.38076376846379
C        16.32376508556313   -3.25308107994292    8.54338525194404
C        15.42953813111118   -1.01855431517703    8.34876805825203
C        17.14738172893173   -4.24919901835708    9.30317593702729
H        17.06413120085021   -5.23986375339036    8.86318906875947
H        18.19687814442367   -3.95440248937531    9.29565470213361
H        16.82516448627479   -4.29769245845713   10.34220159543323
C        15.22599900167735    1.79114531060313    3.60015979114262
H        16.16942921783973    1.30284721499314    3.40063973970184
C        14.79091889446723   -2.51343694344033    4.15355194439959
C        15.11145713366464    0.36457480575391    8.87927152744282
H        14.02146384269157    0.50566391478740    8.70560261508696
C        14.03208883885214   -1.85652717639070    3.19284884918532
H        12.96832796550845   -1.73107237633756    3.34253342450099
C        16.15722694456360   -2.66287592977743    3.94498553776488
H        16.75686585968184   -3.16648009867907    4.69047837218981
C        12.78797616605064    3.01698257146122    4.13697624335620
H        11.83508653988627    3.47845992237710    4.35305647104768
C        16.44257827600712    1.07353442463607   10.92347938372333
H        17.18575777787729    1.52043301446330   10.27917692227528
C        14.33036697692152   -5.38033120424101    4.45555581108765
H        15.01319785092258   -5.02258009513550    3.69870460947834
C        14.81730279591741    2.85795209790838    2.84558175807405
H        15.43315491438931    3.23076364518074    2.04167756876773
C        12.91109786290430   -4.97764839685302    6.34175785705429
H        12.49414090296763   -4.29085501622977    7.06463283547498
C        13.58796119867621    3.46821184682829    3.12293990110917
H        13.26617792645304    4.30846496673362    2.52394826236296
C        13.11511398340543   -7.19518525214470    5.45509644795195
H        12.85376072430365   -8.24289726829985    5.48342565249881
C        15.81687957384707    1.43801153300568    8.08472371634135
C        12.57469737312125   -6.31685409416720    6.38071724741721
H        11.88981489090781   -6.67882571436900    7.13421001295771
C        14.37838595905476   -0.10651219112878   11.21367557787656
H        13.50975470141926   -0.59152573201413   10.78881491468689
C        16.60462520359624    1.11878985002254   12.29801518824860
H        17.47596465405105    1.59977291695584   12.71847835481864
C        14.62543443599919   -1.35226761055300    2.04990968958494
H        14.02350171021540   -0.83566065961705    1.31704854808728
C        15.76302787543665    3.59829475084389    7.02107856913919
H        15.23217902584444    4.51111278611307    6.79463102267620
C        15.65743561260067    0.55088789041598   13.13181565886247
H        15.78662708860517    0.58720970350041   14.20357490782083
C        13.98980347817300   -6.72276405952431    4.49325927931579
H        14.41287782268172   -7.40181197550960    3.76699597690932
C        15.98699426362188   -1.50325196019554    1.85096834857494
H        16.45279300206258   -1.10674248084269    0.96075854067758
C        16.75069749522809   -2.16279853667684    2.79959715348765
H        17.81396401700827   -2.28431865849417    2.64886180710550
C        15.15808968500741    2.62657958451392    7.79612717233023
H        14.15650462809609    2.78784007495908    8.17055190739641
C        17.71308590052659    2.22288494970557    6.82728355819400
H        18.71308256268215    2.06172443085843    6.45053804922290
C        17.10499851232878    1.24865814539355    7.59958741936409
H        17.62669753100568    0.32694937796069    7.81847394490936
C        14.54233540348607   -0.06317034161434   12.58520758283400
H        13.79830128338100   -0.50934716998586   13.22923644834538
O        12.40637631371021    1.52986280671918    5.88911867708085
C        17.04144568854521    3.39609393990410    6.52989360683194
H        17.51210677480670    4.14948948854536    5.91582621039088

