49
CSD_code = DEKBED | q = 0 | S = 0 | Stoichiometry = C18H18N4O6S2Zn | MND = 6
Zn        5.01006162798177   10.47339376719281    5.92768443705546
S         6.99310647179841   12.74620200012083    2.47266707111025
S         3.12975087423746    8.27359983476574    2.36830060816201
O         4.35683056594550   12.25294549384364    6.25652029608589
O         4.50457938988885   14.34445383419615    5.52608078336017
O         5.78105312130197    8.72368000341591    6.18838744302947
O         5.65074209188975    6.65099643922643    5.40913672837311
O         6.34936221023143   10.69772752776826    7.83399214140494
H         7.17263744562821   11.18177700863598    7.73473768546537
H         6.57873758002201    9.75979693918544    7.79621077676624
O         3.52364973826282   10.05964299011974    7.53343875705704
H         4.05180369927683   10.04127904803529    8.33886350397552
H         3.11064479443351   10.93203197967037    7.52133685869412
N         6.35798294395387   11.50029705592485    4.64931722995577
N         6.87920352820815    7.53287414201136    1.52853938403671
N         3.82657029691535    9.50422631980063    4.53051046462650
N         3.31666882988425   13.50463386894090    1.46246973080775
C         4.92223628107653   13.21818421244321    5.66671690356507
C         6.34135961763669   12.87034383416830    5.06542408057299
H         7.03485314279884   12.98829735169729    5.90694406809142
C         6.69427275069532   13.81151407693306    3.90919274343926
H         7.59144167507767   14.39907499791845    4.09614229378835
H         5.86089875794292   14.48490427255831    3.69610912192627
C         6.65610365804262   11.31698998167598    3.41626892763244
C         6.76291710049585   10.01751421552506    2.76634110445379
C         7.14777013180340    8.88212183237916    3.47648242505715
H         7.41876159202114    8.94640418910006    4.51609258320353
C         7.17706609927729    7.66606165052467    2.80855943263336
H         7.43598161338737    6.75761624920471    3.33421386098878
C         6.57321224023180    8.61945924628870    0.84046830742966
H         6.36427969039548    8.46511201066920   -0.20974358674524
C         6.50854470332876    9.88395834574186    1.40059009160280
H         6.25723325122409   10.74844093135742    0.80592098655672
C         5.22315074759626    7.77198534237830    5.56358091225501
C         3.82100387179064    8.13539127346827    4.95001889919559
H         3.12342698785528    8.04424762573508    5.79079971366217
C         3.46016605527699    7.20015832433054    3.79278665297344
H         2.57204663304317    6.60260325069142    3.98921492160757
H         4.29663416889152    6.53684770497481    3.55973256376226
C         3.50446771957245    9.69667981722988    3.30599176133595
C         3.40809411709630   11.00245163197824    2.66739212794768
C         3.09657817802708   12.14185712345739    3.40681137645881
H         2.86638569788675   12.07121525879750    4.45581554205321
C         3.07715742722851   13.36613851482385    2.75444500239287
H         2.87261665218919   14.27572251329681    3.30220704308460
C         3.55061415125720   12.41635582795793    0.74922717875939
H         3.71175006709674   12.57617843825423   -0.30860393140415
C         3.60177293577952   11.14350768724912    1.29249164218181
H         3.79461707411511   10.27820401434848    0.67737134956140

