39
CSD_code = DEKDUV | q = 0 | S = 0 | Stoichiometry = C17H15FeNO3S2 | MND = 6
Fe        1.85357906039001    1.44254328567542    5.95016050024031
S         1.55116106231659   -0.70698311291615    7.08818793164625
S         4.00523398642623    0.79568740787013    5.33964568697166
O        -0.81450388764527    2.21876774273364    6.76179830192768
O         0.34504793667623    1.48667298572684    3.49131690300052
O         1.62134205047499    4.19932648763521    5.72668489890360
N         2.56226359852437    1.51809944483179    7.82802637611544
C         0.25172279010847    1.92709657756912    6.48530248471732
C         1.02496851394962    1.40150113693049    4.41315567345135
C         2.34411956395858    0.25617529895801    8.25980861654124
C         2.74657345248605   -0.15648779881549    9.53682156311097
H         2.55966873518937   -1.17361383165474    9.84067124228452
C         3.35909552684170    0.75922105406847   10.35772650150188
H         3.67678452032977    0.47631298529550   11.35032920904408
C         3.56616812441529    2.06446327520185    9.90271634346499
H         4.03743308566652    2.80277801997016   10.53019150656547
C         3.15254151348496    2.39653220215177    8.63072630819169
H         3.28392472555172    3.39215085517959    8.22919202088671
C         2.35933395834664    3.25349113956185    5.57483203562044
C         3.78836638451183    3.48632813897760    5.16840458490122
C         4.26533411045933    4.77887536249201    4.96504923560582
H         3.58131690370008    5.60347642220668    5.10078496423748
C         5.58095414312658    4.98517168139006    4.59350498725117
H         5.94409328891476    5.98895051728086    4.43239601751913
C         6.43786911746553    3.90636605014478    4.42971288568475
H         7.46592489063697    4.07020802921935    4.14368838055296
C         5.98349785622795    2.61481924354080    4.64057426172580
H         6.64783772345147    1.77139502737528    4.52779427224466
C         4.66097099141793    2.41575304750030    4.99810184498200
C         4.12627305533369   -0.04647766954896    3.68879251110914
H         5.16409257922638   -0.38490277206617    3.62507797435536
C         3.18397638200104   -1.23414597273856    3.75119361480849
H         2.15503966856314   -0.89171606642951    3.85321205525918
H         3.41408939136316   -1.86768406688680    4.60483765570706
H         3.26811305089507   -1.82707947519719    2.84328411877992
C         3.80180045831384    0.89640573554943    2.54860247760678
H         3.80212497186079    0.34228252814779    1.61195820190544
H         4.53206034033938    1.69927093446517    2.47195025359188
H         2.81700637469871    1.33706814860232    2.68648559798594

