29
CSD_code = DEKDUS | q = 0 | S = 0 | Stoichiometry = C10H10CrN2O5S | MND = 6
Cr        0.33029496738065    2.79397446246780    1.92820377161571
S         1.00778763843080    1.40900457092364    4.11005668176577
O        -0.41816815750370    4.34134161083603   -0.52274380618877
O         2.48494411830597    4.86820385988119    2.23553772527975
O        -1.64147664381138    4.45591985662458    3.48974441005034
O        -1.83637858097396    0.91650691409431    1.02913533433549
O         2.15525992422354    1.28302007071344    0.08105139466686
N         3.35503883029860    0.64791922147086    3.04690653994496
N         1.70727422708704   -0.75792400896589    2.68715713604393
C         2.04347613530248    0.42706344559873    3.21389211187707
C         3.95905214460770   -0.35715261888268    2.19227239955939
C         2.80866285250246   -1.34574061955819    1.94871759228943
C         4.05325483452836    1.84846386051662    3.39888177537311
C         0.38713823871921   -1.31154362960459    2.63525315073483
C        -0.14493252415123    3.76028448554903    0.43596795290106
C         1.68032896503410    4.04695446217615    2.22246181405823
C        -0.87079225950943    3.78760391452535    2.97083784255703
C        -1.01428846035995    1.58591475716971    1.47590753484661
C         1.47976930070791    1.83389988352274    0.84285434587426
H         4.31495736362608    0.10019374381540    1.26310472863961
H         4.80993264588450   -0.81900205754327    2.70232630135547
H         3.02591609460964   -2.34673473173993    2.33431304996404
H         2.55122665774503   -1.42887628345246    0.88758116668723
H         4.27688044103290    2.44559579216042    2.50934814204395
H         4.98800345923153    1.59700553665673    3.90235798306476
H         3.42560122062182    2.42804306298725    4.07497230682534
H        -0.26017020521253   -0.72233820205555    3.28402335901311
H         0.40415211541745   -2.34464889635651    2.98694231831463
H        -0.00424534376662   -1.28955246353434    1.61403493651666

