73
CSD_code = DEKHUY | q = 0 | S = 0 | Stoichiometry = C31H35FeN3O3 | MND = 5
Fe       11.61931753962653    4.02222227826691    1.67297782151673
O        10.40473454588153    6.23839140063315    3.14256288808389
O        10.96970452992556    5.38251341219549   -0.81352741308186
O        13.31452349025043    7.02646057230360    2.49204903425452
N        10.25708759244831    2.54291901175166    1.59355547883107
N        12.22394615820767    2.90429299736683    2.98611355226318
N        13.54647526812569    4.49664960819391    1.74114806059503
C        10.87086028928370    5.35889578090449    2.56404055823723
C        11.23413913524172    4.80839550277233    0.15334234755869
C         9.28126445896969    0.61323814547389    2.84091903147729
C        10.30253027021334    1.68180567621605    2.59264174007202
C        11.45728858832696    1.84053406491204    3.41062808635637
C        11.86841931177352    1.03931343542769    4.46773355329892
C        13.09388553840802    1.27875546322570    5.07331613621623
C        13.91757848995867    2.27981646596701    4.57854414509126
C        13.48719206184692    3.06701904670654    3.51808324945087
C        14.20900718527994    4.05737263140941    2.79440273663783
C        15.55837264169577    4.57371282573232    3.18463213925430
C        14.10446726673437    5.49260761895721    0.92111498913952
C        13.95855539119544    6.83711953264829    1.30345837395271
C        14.44254421710064    7.84038168421609    0.47900609740453
C        15.07037932174574    7.50620665721574   -0.71074451495898
C        15.20204893924597    6.18566616856786   -1.09258307296774
C        14.71627201762172    5.16405790250362   -0.28718086809323
C        14.81643152837988    3.72467640699351   -0.68789105005190
C        12.90700707861218    8.33059864390802    2.82574660171213
C         9.23106712153815    2.45649727707367    0.62805040252504
C         7.98632096008478    3.06330436144026    0.84259942422154
C         7.01269627352376    2.95400818863218   -0.13973260566587
C         7.25275758402302    2.25654655623397   -1.30763371924356
C         8.49054001695956    1.68016552142878   -1.52025324987706
C         9.49483608069417    1.77553261280895   -0.56940042643236
C         7.71500306996786    3.86692723604010    2.09239549296485
C         7.49351712885337    5.33477509419938    1.72017623174284
C         6.51770951538851    3.31825394420146    2.87091225156213
C        10.85080362109266    1.15923506056004   -0.82648780016178
C        11.46516535026077    1.71467531339412   -2.11246399102342
C        10.75220626102534   -0.36666700616235   -0.87932359100803
H         9.75706247188614   -0.36706139531353    2.86067337883056
H         8.79680684971723    0.77117115898952    3.80441529240248
H         8.52451416095693    0.62045072063824    2.06008412849258
H        11.24239477280953    0.22633203417939    4.80096316733673
H        13.42018869360689    0.66635960426807    5.89977090638611
H        14.89636806377139    2.43604596701279    5.00466500891998
H        16.12712912227878    4.85349656396378    2.29924549903506
H        15.44470696792978    5.46464038188027    3.80364991676847
H        16.11596715257986    3.83059599553511    3.74798512320840
H        14.33975225974128    8.87838909031583    0.75278855959772
H        15.45058200928565    8.29212482689084   -1.34583382358242
H        15.68022738032604    5.93979569681695   -2.02901767118322
H        13.85361773199340    3.23613818734809   -0.52776447166626
H        15.09901307614865    3.63355087694794   -1.73318841213784
H        15.55747685964965    3.20477337541893   -0.07991066095254
H        12.29514741704227    8.22766140176232    3.72033278231835
H        13.76425499845537    8.97699904191742    3.04398411239341
H        12.30658294929563    8.77713312564209    2.02770993464443
H         6.04966687079513    3.41752745732478    0.01187070410491
H         6.47909714956278    2.17055829572373   -2.05634200576363
H         8.67629467127493    1.14805686857703   -2.44094654506329
H         8.59948816534117    3.81689075544001    2.73680510438474
H         7.40648298860454    5.94157456515129    2.61855438004146
H         6.58704758717314    5.45510949170463    1.13172535257516
H         8.33619548415775    5.69973003669816    1.13665995069362
H         6.66649209810940    2.26960549911747    3.11876561274768
H         6.38832333690714    3.87649501689179    3.79560906691916
H         5.60261882539306    3.40492495451755    2.29015009861657
H        11.51543049336784    1.43519550368853    0.00193029873148
H        10.88360031626885    1.42610797826443   -2.98432723788410
H        12.47748927922761    1.33519646946895   -2.23755387827511
H        11.50404199200655    2.80045862403042   -2.06800447773025
H        10.33744451994951   -0.75428432854261    0.04889508705672
H        11.73792519542348   -0.80347251494335   -1.02623768529995
H        10.11071224944948   -0.68344842165436   -1.69853471851529

