86
CSD_code = DEKJOT | q = 1 | S = 0 | Stoichiometry = C41H37ClN3OP2Ru(1+) | MND = 6
Ru        5.90050901384433    0.36426212991303    9.93755284784597
N         7.78413957310101    0.89002971115208   10.35489240357871
N         8.61911977751323   -0.02382457137930    9.77239023516389
N         5.72108161841432    1.82982637547004    8.71384938214932
O         6.97544781501422   -0.75172457558165    8.43240927644698
P         5.07863253000589    1.72295547766911   11.57801522104920
P         3.92076415402255   -0.77180073276102    9.35122778424332
Cl        6.40546309353817   -1.52990415066751   11.23789926420979
C         6.28932300846616    3.03481441121743   11.95907766690820
C         5.81107950631922    4.14904399646525   12.64493702528194
C         6.66276382971337    5.13320414184320   13.10744363070489
C         8.03165005174712    4.99586663247514   12.92265315187715
C         8.52588505573633    3.88446669738858   12.27643477497451
C         7.67583456819197    2.88618899643671   11.77132126250583
C         8.32593417500738    1.78731420554048   11.10094252967092
C         8.13481074683988   -0.85160952735965    8.81056316873270
C         9.10104388512139   -1.83858673431705    8.23458793531409
H         9.28994445345433   -2.61762143303067    8.97237409575723
H        10.04616735088271   -1.36783469734719    7.97523219576977
H         8.65982324610223   -2.29584657909625    7.35306092556881
C         3.60340531952619    2.61402259017735   11.01045633087634
C         3.71118834089622    3.80506620224730   10.29747910855092
C         2.57701526204580    4.41672496512717    9.79584602211533
C         1.32980752766454    3.84940133699384   10.00134172731605
H         0.44563770511333    4.33712789384311    9.62100943113552
C         1.21881109980704    2.65489218232687   10.69315458212912
C         2.35093399391821    2.02715315708563   11.17929612874945
C         4.75873229221285    1.26407844454262   13.31368218568194
C         3.71184872295881    1.78853206144597   14.06493291592880
C         3.58739006523882    1.44036954768678   15.39847707515153
H         2.77028843141627    1.84176965434851   15.97895295619681
C         4.50267261643586    0.58401106780462   15.98841073957077
C         5.55631332159207    0.07557673095074   15.24526608440966
H         6.27223985096154   -0.58979583586476   15.70297570033158
C         5.68949488347282    0.41794174109910   13.91315493796671
C         4.35115457282087   -1.88989106393903    7.97981183046314
C         5.18300004814435   -2.97013318273060    8.27540673123764
C         5.58888901314099   -3.82791459657605    7.27172503165188
H         6.22861009211373   -4.66597836903118    7.50696972320488
C         5.17334491731790   -3.61592218324874    5.96609672001012
C         4.34988918734644   -2.54342801027131    5.66905277487807
C         3.94043573069938   -1.67771191357975    6.66918324494003
C         3.23265926888286   -1.91978554742020   10.58191998916140
C         2.62614830242248   -3.11464415867651   10.20033643256131
C         2.08996388867329   -3.95076279794628   11.16286435113442
C         2.15028443091494   -3.60499654024798   12.50381947602570
C         2.74585096502521   -2.41413324476475   12.88600017004733
C         3.28214492725635   -1.57562260615127   11.92685274460219
C         2.43021470088677    0.07523336886295    8.72694467496292
C         2.59481308355368    1.13320819700493    7.83685507554463
C         1.49610371437606    1.77817486634619    7.30187381969551
C         0.21813012088752    1.37210051205594    7.64978757345370
C         0.04721612414060    0.32195462397823    8.53554231048368
C         1.14523634073247   -0.32456887384850    9.07556574482076
C         5.79978825385596    2.66773809730621    7.92508612050456
C         5.83048242047584    3.72291252590484    6.95834641798925
H         6.61003391032119    4.44142298828390    7.21253239404605
H         4.86576861149803    4.23150724924661    6.94727618021759
H         6.03071223691603    3.31539224205555    5.96706497838817
H         0.99930393863099   -1.14048736873265    9.76769238387693
H         3.77354741289675   -0.65531129532356   12.21700515892353
H         3.59435704847183    1.43962303162751    7.56393952733539
H         9.41147186875031    1.75877692144307   11.22497011858741
H         4.68391010773292    4.25531179981281   10.15145466591063
H         2.80211404615049   -2.14052399844783   13.92918436598946
H         5.50521463733838   -3.13362924721229    9.29546687521979
H         2.26598307510814    1.08269813537859   11.70008030996905
H        -0.94746595328471    0.00059104471365    8.80618487645091
H         9.59348565762101    3.77638648720297   12.14960378307996
H         6.49727784078206    0.01074534374411   13.31983963392955
H         1.73741522744313   -4.26680398216630   13.24985335239616
H         8.70879073123112    5.74940731549374   13.29336195614842
H         6.26608736964119    5.99406848724032   13.62262222191315
H         5.48949708913654   -4.28751856944088    5.18201854463413
H         9.58572893616164   -0.07596673532642   10.08655390136558
H         2.66336135202354    5.34586367888289    9.25176598707909
H         1.63310097704028    2.59416700808092    6.60744065776186
H         4.74738124337494    4.23839579021569   12.81476681731737
H         4.02192618349806   -2.37896287749649    4.65328054468533
H        -0.64133545358061    1.87150581885593    7.22932802592300
H         1.62567788084946   -4.87886895744237   10.86467961343110
H         3.29324978647336   -0.84621120364585    6.42899320898628
H         2.57863986504960   -3.38886143594458    9.15546938038943
H         2.99287327206355    2.45763572108813   13.61493197368848
H         0.24893953002900    2.20847636270314   10.84936559746472
H         4.39509458028168    0.31424962838192   17.02793130375377

