37
CSD_code = DEKQOA | q = 0 | S = 0 | Stoichiometry = C14H15F6IrO | MND = 7
C         4.31770807848644    2.78363118207571    4.84788500374978
C         5.63677615381286    2.89916733370752    4.28702717403549
C         5.60718139069061    2.30516265082362    2.98839677833536
C         4.29011704096973    1.79495502170099    2.75667427133812
C         3.49502715215812    2.10321557521092    3.91346376059056
C         3.93279674355863    3.10755554519441    6.25569723283641
H         2.90410331823431    3.45756212928098    6.30825274404278
H         4.57866497325664    3.87509634312835    6.67508750806194
H         4.01754815649309    2.21262659014854    6.87516169849820
C         6.86226511393245    3.33228173206152    5.02505158419056
H         7.27814359662911    2.48365808143402    5.57240449024055
H         6.63577788600003    4.11804991801314    5.74212859316707
H         7.62412593422174    3.70020802840578    4.34198411516281
C         6.80894046253799    2.00993410258224    2.14241119914454
H         7.24052294562563    1.05208765797074    2.43788402032279
H         7.57117734960954    2.77631480221057    2.25997501042782
H         6.54441706392410    1.95207952162597    1.08921913432692
C         3.88859480414016    0.88620116726147    1.64015195793778
H         4.45718825568448    1.09651200265289    0.73749130446246
H         2.83040291693314    0.98599127630558    1.40979358481407
H         4.07744065947426   -0.15056193517437    1.92696069732415
C         2.11135998316078    1.60693089535135    4.18544001323673
H         2.15874401132537    0.68232593629800    4.76389261129436
H         1.57599351086343    1.40421950250281    3.26116361537832
H         1.54124432236598    2.33446706429960    4.75915299319232
C         4.89792035329119    5.03903656968196    1.56690715688095
C         2.76949988939236    5.27802736295902    3.30703238962737
C         2.27112216189268    6.55563299018405    2.66245232763033
C         1.16394098386080    6.25619103645362    1.60635514593061
O         5.41604928840110    5.55564455904195    0.68421552616322
F         1.86527989552346    4.97079022561551    4.28900750303802
F         3.26511700461444    7.21295342775985    2.01091419897410
F         1.76026541879293    7.43920782498639    3.55562135999449
F         1.64737463693134    5.44769621817560    0.65549237578341
F         0.11759872724799    5.64087180007294    2.15432813292196
F         0.71682695884660    7.35650094508622    1.00854912981588
Ir        4.19314285711479    4.03057491491129    2.97567365712841

