63
CSD_code = DEKSOC | q = 0 | S = 0 | Stoichiometry = C27H31NO3Ru | MND = 10
Ru       16.74005749134009    0.57808096989503   13.75094834921233
O        13.54065937377800    2.77512217417781   10.72285162157763
O        13.25963645840720    1.57253176464235   15.08517567156427
O         7.94307504929581    0.14859611362956   12.13640980871120
N        13.16102075122521    1.93934720393230   12.82301870781011
C        16.51190522335374    1.17201005885779   11.64001996204633
C        17.67092979048246    0.38899490784363   11.69989062358797
C        18.80256717568157    0.47294903121721   12.56087225275917
C        18.90493164088532    1.24368409061722   13.71365169773535
C        18.00849604543505    2.30237759097548   14.08958135922670
C        17.96143088789732    3.59567922195862   13.29842709121727
C        17.64985367886036    3.44980298349228   11.81792039981803
C        16.36312988673659    2.67411918170482   11.55663264996098
C        15.20540167149690    3.00610251035522   12.49944923357946
C        13.88963748404595    2.58078049357345   11.86278087592272
C        15.23527526013475    2.23916000168116   13.83250124096356
C        13.83548548963374    1.85591701249781   14.05772073896576
C        11.81893247965898    1.50943360251775   12.64535126965407
C        10.77237702870963    2.39008080156909   12.85824442849998
C         9.46185083682893    1.97502748185338   12.69812873272857
C         9.18909425353471    0.66455790264250   12.32115999109012
C        10.24915967137844   -0.21852924376922   12.10718105771000
C        11.55151809339864    0.19945452422284   12.26788503374512
C         6.83132612194306    0.98703780125707   12.33752724200752
C        15.21922237878793   -0.98459158012151   13.54097635781721
C        16.48968614160062   -1.57591059307176   13.51057866187601
C        17.01085452307556   -2.42439362917427   14.65434809532043
C        17.83094096356039   -1.60311372932763   15.65516699164340
C        17.40075713968720   -0.15522480713070   15.71934341941189
C        16.07680770375801    0.26778844957177   15.84751622161043
C        14.91972237786693   -0.69720626384475   16.04451357579419
C        14.30308626648076   -1.19629343930058   14.72663370093431
H        15.71741811231161    0.69956028856820   11.05212058492064
H        17.67505760126357   -0.50591399257073   11.07187839537499
H        19.58511506993556   -0.26114308769702   12.38139248407819
H        19.70950214122767    0.96549657582311   14.39582734067999
H        18.14155025510565    2.57435223421666   15.14670638849721
H        18.93797758897768    4.08658383896029   13.40326286460335
H        17.22807693615925    4.25945688267371   13.75963849367000
H        18.47463768068452    2.94601015607748   11.30638420658571
H        17.55694509083347    4.44868256307298   11.38476472669659
H        16.03462665812182    2.90661441431705   10.53309565462227
H        15.14009674016895    4.08951922069638   12.65939948154675
H        15.55040601055970    2.86864086924372   14.66914905639270
H        10.98305674623729    3.40691568852812   13.15311907767771
H         8.66636564145129    2.68232366017628   12.87109423753296
H        10.02115547738767   -1.23091314190859   11.81359833863249
H        12.36691400181690   -0.48710552726439   12.09851341562723
H         6.83934665135853    1.83800468237414   11.64876855518419
H         5.95696800424309    0.37008643005163   12.13574817431683
H         6.78494176341438    1.35295800396018   13.36831803658382
H        14.68510404042535   -0.91075730438538   12.59021589318836
H        16.84946112926814   -1.90960356675256   12.53578507218717
H        17.63909758213812   -3.22136768625281   14.24942488361064
H        16.16940088278923   -2.90410379523507   15.15738167828452
H        18.88624777631709   -1.63723051964605   15.36933252813090
H        17.76022096354749   -2.03690976693121   16.66016209286068
H        18.16127181482474    0.48205490018328   16.17690641850027
H        15.92435394015182    1.22385316500951   16.34967266699904
H        14.14486998916281   -0.17980971990207   16.60792801332347
H        15.27145866310633   -1.53686334492288   16.64952253341132
H        13.36493498136987   -0.67208850186445   14.55503410744325
H        14.06269072668055   -2.26417620754244   14.79694753433272

