62
CSD_code = DEKSIX | q = 0 | S = 0 | Stoichiometry = C24H30CoN5O2 | MND = 6
Co        7.94462233105605    2.96350893175178    2.59529870879274
N         7.21764246150562    2.99233376740086    0.84174141221173
O         8.94458571270905    1.38201412442746    2.34586445160447
N         7.94463515644920    0.65112992902647    2.59536966050837
C         6.21214964220662    3.83663622869467    0.65706291152712
C         5.83426629759974    4.54108507106434    1.88572780006257
C         5.64117851442223    4.05935339587791   -0.61493668134911
H         6.14325268345175    3.56573878474564   -1.43318820479834
C         3.67839142072704    5.56936326926570   -0.25904421479026
H         2.85644550058103    6.03579206646368   -0.78485352493097
C         3.77199042388972    5.81332639840498    1.10128030918582
H         2.99457103181818    6.44718920178710    1.51321332599647
C         4.71431200102123    5.39097755975468    2.01412097294987
H         4.53543430364279    5.76084014951887    3.01135433914904
C         4.54844418644001    4.79939801300648   -1.01218727997518
H         4.33945343131984    4.76526029869569   -2.07562416713438
N         6.65636719302379    4.29571960872948    2.89771460870787
C         5.78952230491484    3.03249635029213    5.54946137304205
H         4.96251893436584    2.71776631335333    6.19005545174510
H         5.77134256861559    2.40128536872672    4.66016435523481
C         6.54249839312129    5.04314859300935    4.13304360444760
H         6.29286900801922    6.08917703990818    3.91155747859936
H         7.52335101920305    5.05258513114171    4.60852144398757
C         5.52031153706113    4.47646415096072    5.13042082874341
H         4.52045019162583    4.51264379560700    4.69447938612418
H         5.52498059670465    5.12201794708266    6.01317794253601
C         8.19321511262388    2.16062392032871    5.43245746804217
H         9.03423757461643    1.83957564422593    6.05896459116617
H         7.75805171310249    1.25117251358711    5.01248052789127
C         7.11367021430384    2.82901576285380    6.29830323230681
H         6.94891442680598    2.17687646610625    7.15871469755012
H         7.47634741759419    3.78728114947352    6.67524409957356
N         8.67160763912160    2.99232624075942    4.34887324358068
O         6.94473476828587    1.38202433944643    2.84506692081739
C         9.67710550749764    3.83662482498929    4.53357283826453
C        10.05498271421201    4.54109547893636    3.30492082798926
C        10.24806310285875    4.05935206425215    5.80557994492943
H         9.74598545813884    3.56574456921768    6.62383276297246
C        12.21083515230606    5.56938911415581    5.44970570162253
H        13.03279441734113    6.03579408556029    5.97551406971589
C        12.11723838478824    5.81336023256625    4.08938150347351
H        12.89467160201287    6.44720729935628    3.67744727577309
C        11.17492483980262    5.39100524147898    3.17653589965073
H        11.35380663091332    5.76086433826663    2.17930232041655
C        11.34078180580007    4.79941845651352    6.20284143028594
H        11.54979263531941    4.76524636810951    7.26627074382875
N         9.23288999913881    4.29572053300411    2.29293259736767
C        10.09970781830257    3.03248524835716   -0.35880275712496
H        10.92670874412804    2.71775960755826   -0.99939793701310
H        10.11789339411474    2.40126205107386    0.53048787696562
C         9.34675721584713    5.04313710069398    1.05759606687916
H         9.59638888514591    6.08916586993366    1.27907192299185
H         8.36590244719185    5.05257373795143    0.58212242050576
C        10.36894208499628    4.47645653466597    0.06021935217569
H        11.36879787134447    4.51262255474563    0.49617279071565
H        10.36428928941614    5.12202074361046   -0.82253224825987
C         7.69602461971823    2.16063461931376   -0.24184832763384
H         6.85499696894938    1.83960011260464   -0.86835225794548
H         8.13118709600516    1.25117408498814    0.17810195836488
C         8.77556945304915    2.82903465701516   -1.10767954460351
H         8.94031072890827    2.17689689978392   -1.96809616145085
H         8.41288542080171    3.78730604582146   -1.48460214396373

