67
CSD_code = DEKWAR | q = 0 | S = 0 | Stoichiometry = C18H35B10ClOPRh | MND = 10
Rh       -0.22390637770783    3.41408763219326    5.82963266839333
Cl       -1.58145084460664    6.36496461316967    6.62015799754315
P         0.81360497539844    2.19802676845106    2.49373593905655
O        -0.60149185873909    5.85668624200356    4.17547549282422
C         1.14110820200889    2.70207983677902    0.75603467099314
C         2.19444329910987    1.04303533287607    2.82929574094674
C        -0.67538739650868    1.17284037076660    2.26541362014860
C        -1.87030035292554    1.85091808275264    2.03801497349878
C        -3.04535299090591    1.15271660766117    1.83333037373406
C        -3.03996065713725   -0.23308354878134    1.86381457614366
C        -1.85732675051451   -0.91409472049123    2.09775034836886
C        -0.67764245352373   -0.21587982098355    2.29634217528645
C        -0.44802166368428    1.19336807138052    6.60834653053487
C        -1.73579955248405    1.75120215919233    6.27425208995557
C        -2.01102654811660    2.81918044319989    7.16625228128517
C        -0.83297197587210    3.03701649467742    7.93379793089318
C         0.10834525942338    1.98427615850019    7.62490902155474
C         0.10286353781384   -0.08987488848812    6.06499345615016
C        -2.75337791275103    1.08687737236457    5.39483016911208
C        -3.33116902058336    3.49024998527895    7.37813727957912
C        -0.75531468850331    3.94133996515337    9.12362131119582
C         1.37163854652269    1.72454125175057    8.38280770983207
B         2.57664042929500    5.39804154986109    5.08327884375985
B         1.80782206521240    3.78107593099781    5.09820979325201
B         1.23642848274211    5.06405592363746    6.22751304318715
B         1.43640709115095    6.65800550390239    5.48784524009740
B         1.92761554212653    6.42132673242847    3.81379079997871
B         2.00709555419097    4.68692495290277    3.56189470754093
B        -0.27069230280374    5.62453400385115    5.60313008850964
B         0.32232968553281    6.98141912775470    4.07179304627459
B         0.36787231548608    5.34232879243783    3.14685818138174
B         0.64133309436110    3.62993624924303    3.74316618809201
H         2.06527032848232    3.27089237770240    0.71307042706012
H         0.33127362910739    3.33510517075896    0.40388502646546
H         1.21753425302819    1.82909411745369    0.11100599753182
H         2.01885753228341    0.52669146636293    3.76921541894363
H         3.09879072091011    1.63832452669150    2.93257610107784
H         2.32724228073371    0.32242213360067    2.02543863758349
H        -1.87106203361019    2.93236029853109    2.02727796441949
H        -3.96717667420308    1.68568299044496    1.65571783506046
H        -3.95695099385982   -0.78130191078861    1.71033449408966
H        -1.85208204570364   -1.99367151167853    2.12740276788808
H         0.23794607510654   -0.75931378782810    2.47566703106046
H        -0.19112058588431   -0.23715144966339    5.02665929218572
H        -0.27958074668850   -0.93520748611650    6.64197069786377
H         1.18917790666471   -0.10713732970544    6.12886252931479
H        -2.28358599090585    0.45598061748055    4.64449801167833
H        -3.37897902407291    1.81794776282299    4.88593587653005
H        -3.40457074903953    0.45618302025679    6.00393637571146
H        -3.20698332737169    4.56166855057112    7.51718218123056
H        -3.80865685985570    3.08658067592486    8.27376267969416
H        -3.99631683054431    3.32472092761380    6.53388134343784
H         0.27357072282808    4.09391150411135    9.43668689169592
H        -1.30664783944821    3.49803727792398    9.95541233282000
H        -1.19810928380761    4.90928401716259    8.90125889533671
H         2.02976326161692    1.05545004868057    7.83442205123964
H         1.13827228035999    1.26265251309790    9.34425074971728
H         1.90686601989000    2.65171208978208    8.57211183044131
H         3.71327414358997    5.43773698297463    5.39090812624218
H         2.50097042169465    2.86416526818311    5.39444934223167
H         1.45655086241531    5.03706544372951    7.38923659071494
H         1.66487864280643    7.58876839351227    6.17048347965971
H         2.61346288126496    7.14559120878614    3.18568963560472
H         2.72932859129092    4.31978763648648    2.69195519177865
H        -0.13973894475658    7.99797617605402    3.69235138286266
H        -0.03450257062332    5.51335818413715    2.04286803752139
H        -0.55072078661591    3.47530891840787    4.24790848418975

