92
CSD_code = DEKXID | q = 1 | S = 0 | Stoichiometry = C41H39AgN3O6P2(1+) | MND = 4
Ag        1.15063055081022    1.87330708860241    3.58615094785105
P         1.86185708885983    4.19244682715325    3.15286779659938
C         0.52829064083846    5.42278504199996    3.26932838941738
C         0.75491256858787    6.78143223311613    3.06641229642824
H         1.75581855613140    7.14044565420731    2.87403653383756
C        -0.30589287500978    7.66641958729232    3.11817999835518
H        -0.13250835658682    8.72100630865460    2.96693731378434
C        -1.59038194947276    7.20285095554229    3.36003513714853
H        -2.41379221080504    7.89902439975999    3.39997694619589
C        -1.81972673816574    5.84928566760063    3.54876416316766
H        -2.82072723409239    5.49000951373925    3.73170127103704
C        -0.76233625794237    4.95850794748534    3.50320632491149
H        -0.92023084276559    3.89049398686797    3.64785590796610
C         3.27269481159468    4.91979715084336    4.03523336692498
C         3.09218144935528    5.78750605856262    5.10795147025071
H         2.09436537174594    6.09227927103104    5.39033956807353
C         4.19116074509388    6.26244646972516    5.80228759346122
H         4.04998837176992    6.94569907045004    6.62586122299714
C         5.46871465289159    5.86356008220452    5.44387506776290
H         6.32284592506063    6.23966991766922    5.98569340926598
C         5.65009344716275    4.97846164023388    4.39187019270515
H         6.64450867234754    4.66101588759982    4.11567198321061
C         4.55778294470736    4.50053329791902    3.69302825964555
H         4.69389397909594    3.80859449651731    2.87164512148767
C         2.30267075724933    4.36152167562188    1.39247521798469
C         3.16813459341112    5.33144903833933    0.89922593302998
H         3.66920133807185    6.00964664658136    1.57473088540620
C         3.39711731610666    5.41496310237509   -0.46351062466394
H         4.07119816925590    6.16565630116400   -0.84766464685426
C         2.76358336523368    4.54283221586676   -1.33449306007027
H         2.94816916484482    4.61296825484712   -2.39554778466854
C         1.89306631034398    3.58017149062112   -0.84566298260865
H         1.39822359555657    2.90457903858731   -1.52703861421024
C         1.66320424018038    3.48985456012856    0.51429443217520
H         0.98147386789910    2.74167046388675    0.92202693735285
P         2.53230315353384   -0.89357616662186    2.88202645950978
O         2.03949213744542   -2.39274336050066    2.70329929002920
C         1.65908459990969   -2.99759317871296    1.50355122778435
C         1.84179461234407   -2.39626631713704    0.27298004441907
H         2.30966414190359   -1.42555982608883    0.21667253379493
C         1.42641096247144   -3.05682109187246   -0.87209810463573
H         1.56737209682045   -2.59066476834726   -1.83448573726438
C         0.84211768811617   -4.30858537165792   -0.78629946774411
H         0.52072259396152   -4.81715436326385   -1.68139773694906
C         0.67361759460806   -4.90759422656278    0.45166041964261
H         0.22451599436891   -5.88592383264577    0.52582919536540
C         1.07684789712548   -4.25252705766176    1.60235975824147
H         0.95786250107292   -4.70986051973395    2.57223047978251
O         4.05004496099943   -0.96528801203475    2.40913144034865
C         4.84483389006313    0.11691707650119    2.03246403005049
C         4.39430294509424    1.09064205631811    1.15620507201448
H         3.39760160451336    1.03872046171093    0.75001090969684
C         5.24040508682516    2.12997900970953    0.80331010179110
H         4.88667254899568    2.88767201935803    0.12075736227174
C         6.52617221223274    2.19074500123650    1.31286401706404
H         7.18077255519131    3.00069802002154    1.03141881258000
C         6.97398006097476    1.20273972575633    2.17430411784784
H         7.97970383117574    1.23520722907269    2.56323511184801
C         6.13584113782944    0.16415991033885    2.53935989943366
H         6.47603895562096   -0.61725786132695    3.20084455583579
O         1.72004617959737    0.11551088747301    2.18236708180468
C         2.50922780656841   -0.85084232033698    4.74113789699414
H         2.54317331428864   -1.91413728027451    5.04236939284992
C         3.71328095295053   -0.14955277687566    5.37383719104503
H         4.59941730097812   -0.64662982878879    4.96352444880673
C         3.78250518706775    1.33078477359094    5.01906236080380
H         3.75937624331562    1.47433312739520    3.93679543917291
H         4.71115517962567    1.76032336761144    5.38760186763418
H         2.95710656806805    1.88424800575731    5.47996998306819
C         3.72477137508902   -0.33770013430088    6.89197321274118
H         2.91123588538180    0.20851851780122    7.36523094832812
H         4.65710040419578    0.04299698704366    7.29995867284453
H         3.64668342481423   -1.38935629176958    7.15848449383057
N         1.22703373215152   -0.26218506897947    5.10495469032354
N         0.19106191773082   -1.01023460567795    4.52731589109192
C        -0.65479546746061   -0.44544103038425    3.62306759420942
O        -0.83827574167354    0.75747582708701    3.56902248697567
C        -1.27569553533005   -1.41112627728611    2.68425394230604
C        -1.33481533953049   -1.02115958953266    1.34727070477962
H        -1.02867771028180   -0.02161005967376    1.08152181894730
C        -1.74110626584658   -1.91965043487810    0.38221228584709
H        -1.77018144947334   -1.65333296159352   -0.66300726763388
C        -2.10715705429165   -3.20146346281356    0.76809131821434
C        -2.11666159073752   -3.58252468119620    2.10357073291338
H        -2.44039416483295   -4.57835975671889    2.36524783352973
C        -1.69189983543955   -2.68587263400377    3.06372381897998
H        -1.70833652794222   -2.97234391361616    4.10475086978336
N        -2.45705331987613   -4.17451775264510   -0.24799039292220
O        -2.43769910668902   -3.80530132572825   -1.39870011387092
O        -2.71746805979287   -5.29459443191631    0.12462004991351
H         1.12046199370972   -0.24446224191071    6.12190206924865
H         0.30761791086996   -2.02004853156103    4.51597890924777

