58
CSD_code = DELBUS | q = 0 | S = 0 | Stoichiometry = C31H18ClN4O3Re | MND = 6
Re        5.49531505831889   12.92597653272418    8.31109354193231
N         5.67513479061020   10.91044892934925    8.98268129928244
N         4.89252772727995    8.69178108466889    9.08535483974153
N         6.87759070066441   13.04489112739082    9.92180146815740
N         8.16558336265559   14.23837408450729   11.49043332013319
C         8.74156167146099   13.37200716856491   13.67227271876587
C         8.09595678676454   12.82105080000676   14.76104794474557
H         7.15074779766007   12.31530623443482   14.62554899627328
C         8.60915035477307   12.95027050142655   16.05432464419489
H         8.06904019940550   12.51776899508249   16.88316676470292
C         9.77907294022635   13.62666655048582   16.26155558622365
H        10.18226628973689   13.73573030163303   17.25795795536204
C        10.47944097332275   14.20051378953341   15.18113662218521
C        11.68954931021694   14.89575955191579   15.38988165218663
H        12.06600298197018   14.98126492572709   16.39916115109639
C        12.37222804676857   15.44514693913048   14.34231547974736
H        13.29637185569383   15.97814965644458   14.50957858917474
C        11.87481265204808   15.31223727629814   13.03818807780579
H        12.42511368235776   15.74240378131884   12.21461588637441
C        10.70442534934552   14.64478481790364   12.80196208598332
H        10.32897250554351   14.55851221529319   11.79534493956332
C         9.96352689007954   14.08202193483858   13.86109081734785
C         8.12291659741520   13.21899371595268   12.35544802482491
C         7.47433646896848   12.03544978278008   11.99212340435774
H         7.47485795626501   11.18604959487451   12.65413553570807
C         6.84286374611855   11.98482771532632   10.75754473632846
C         7.55581184165961   14.10924917590932   10.34139763955369
H         7.61132307367500   14.95753842158795    9.66844079609235
C         6.14688909430827   10.80177523978508   10.24369021949388
C         5.98631052148306    9.62512586042901   10.96120800432079
H         6.31964639243148    9.54382627641241   11.98194171668774
C         5.32197826983214    8.56119463856428   10.34512849921706
C         5.08107219830035    9.83387992099894    8.47685544402101
H         4.71444516140099    9.90330768059246    7.45886452968861
C         5.11373434390275    7.29144322249586   11.04176428511668
C         6.12807511141839    6.81417309361264   11.84698110011808
H         7.05304455730024    7.36698285638355   11.93115726229608
C         6.01033725779174    5.59586195317244   12.52118618518846
H         6.83029722932565    5.24780473948080   13.13148866238573
C         4.86847960145019    4.85397326401870   12.39874082886925
H         4.76879297575539    3.90930330978840   12.91349085012623
C         3.80035130586920    5.30416848271623   11.59672393194240
C         2.61629359049888    4.54641462115827   11.47420724982043
H         2.54808042181009    3.60883967148502   12.00720291565595
C         1.57766130064623    4.98889264573885   10.70554773324804
H         0.67466219785742    4.40349087371990   10.61559309681190
C         1.67824007399889    6.21563666573793   10.03386344712355
H         0.84802467237140    6.56283672538818    9.43712594162679
C         2.81279046013062    6.97359254410078   10.13065025483451
H         2.87754992591497    7.91220980823583    9.60497171314151
C         3.91156229337093    6.53876938920281   10.89936437743898
C         6.85138825244926   12.79484889225169    6.92483279651086
O         7.67406911451401   12.69702341428150    6.13008566941475
C         5.26352865464812   14.85450922000794    8.11536834443318
O         5.09423149173606   15.98437669834116    8.11708210963770
C         4.00677777455263   12.58600640537036    7.09438878032835
O         3.07683433395902   12.34448835097983    6.47556189749073
Cl        3.97104980994311   12.94856793044983   10.14832763516451

