35
CSD_code = DELBIF | q = -1 | S = 0 | Stoichiometry = C17H10MoO6P(1-) | MND = 6
Mo        3.66760646076244    1.56461657903361    2.19658796859056
P         2.13851801832545    3.39929769363534    1.67987464359559
O         4.90164097004350    2.43515681222051   -0.51127516394201
O         5.64947670501184    3.55480221159868    3.51136888136422
O         2.26603864625697    0.84261964171200    4.86918217433582
O         1.41400382747162    0.10912172803872    0.64564647763050
O         5.57567062269174   -0.84642901346981    2.57540641515927
O         2.09554963837875    3.91444177001854    0.29298223111051
C         4.46478105611269    2.09002974182795    0.48342174313491
C         4.92124703779114    2.79141281301677    3.06305858771727
C         2.77991674219544    1.13039236155083    3.88463504367073
C         2.27670388106881    0.58269062599131    1.22872125243300
C         4.86786064921137    0.05102440216037    2.44170658653091
C         2.28252914137464    4.82273745555304    2.84253877103358
C         2.00411748913376    6.08573154066059    2.33887844339238
C         2.08771102240983    7.20316301639751    3.14896841857851
C         2.45018739615722    7.06454947960004    4.47843825445909
C         2.73557189689089    5.80757115342746    4.98734599594317
C         2.65702277494376    4.69286936278443    4.17285377217198
C         0.42217976978602    2.92112025471475    2.16396287463043
C        -0.44185989921540    2.62734137664332    1.11758340136857
C        -1.73059938487166    2.18986116797165    1.36313776385968
C        -2.17120690444697    2.04651939027591    2.66751289542436
C        -1.31879034260290    2.34750542099241    3.71826428584340
C        -0.02942452825777    2.77953027798278    3.47013755419493
H         1.73319573598487    6.17004604890194    1.29551126971943
H         1.87212991300556    8.18496572896293    2.74693345577936
H         2.51881086424378    7.93556773570566    5.11730472823808
H         3.02768636971864    5.69950954282878    6.02407882822893
H         2.90044404527640    3.71425473870360    4.57098433390695
H        -0.07929213874696    2.75130656092281    0.10572261946778
H        -2.39299695447019    1.95781721225147    0.53905283090651
H        -3.17785071183718    1.70274908341834    2.86800343723736
H        -1.66397731931542    2.24208327297323    4.73888928099224
H         0.62379750952275    3.01832281099048    4.29767994329478

