71
CSD_code = DELFIM | q = 0 | S = 0 | Stoichiometry = C29H36CuF3N2 | MND = 2
Cu        2.05758763279464    3.29773515757238   13.94568042142941
F         2.25949587622494    2.66357399248831   16.82388565379980
F         0.29612432925381    5.37131856781459   15.66168436091053
F         0.64519994743687    4.65820023161776   17.69347123453150
N         2.75235496873283    2.28866366168616   11.19699489237033
N         1.80504056499388    4.20953023569234   11.18607470562878
C         2.24501547378639    3.23687269755143   12.01150126774889
C         1.70981555730898    3.50549801137750   15.86264272198881
C        -0.21137275733259    5.44248029154296   11.74253689088549
C         5.26168860662103   -0.20190920055249   12.23574247180000
H         6.32817762782901   -0.29100507239695   12.36412747097976
C         3.32995732695847    1.06787922697138   11.64516417917239
C         4.71875362370838    0.98975239531284   11.77721769981347
C         2.63142359222306    2.66193867169463    9.88507929589367
H         2.97382178546871    2.04030490302252    9.08378193237168
C         0.99048132790980    0.09704346864129   11.82179169434881
H         0.72933342117113    1.06794817579693   11.38936288837171
C         1.97903903306885    6.50032150840301   11.97418025632852
C         2.03246697039920    3.87706095784589    9.87872644199849
H         1.75310345369468    4.52090249248251    9.07070766083689
C         2.49188897844599   -0.00554763528977   11.94898705834742
C         1.18002497547726    5.40817754746973   11.63359985168508
C         3.48610266520429    6.43624278562393   11.89409776926378
H         3.78594952851633    5.47519389094180   11.46424640042370
C         5.59093786093788    2.19133885093538   11.49553800025213
H         5.05632071593443    2.86968406751615   10.82172888545383
C         0.93766031121772    4.44339918266876   16.39993811267747
C         4.44932409178422   -1.27775042236845   12.54131283128086
H         4.88874509102982   -2.19634944992902   12.90009396959915
C         6.90905428540686    1.81978349016001   10.81574577181154
H         7.41498820529798    2.72206700356109   10.47930891962189
H         6.73090453284984    1.18190351396733    9.95249326976694
H         7.57461526073580    1.30118286215281   11.50010328615993
C        -0.79840163432675    6.61073056045584   12.20751527861374
H        -1.86928912169990    6.66215631770604   12.32072925710191
C        -1.05694191504292    4.23228874585334   11.42281558698293
H        -0.44070111624934    3.48571013152331   10.91067956941401
C         3.07929298349726   -1.18072676813033   12.39925161287116
H         2.45790419576840   -2.02579998242971   12.65011018235471
C         1.34864102649600    7.65066603823596   12.42811263532092
H         1.93986540420863    8.50843672195266   12.70737145011205
C        -0.02636481923874    7.70551985004461   12.54378026482884
H        -0.49938038277592    8.60391282914937   12.91005864122752
C        -1.56111718372366    3.61317622080436   12.72888471261803
H        -2.14165899102793    2.71673195694563   12.52248584783371
H        -2.18738956810041    4.31834222706400   13.26843676770092
H        -0.72150726261347    3.34855130227602   13.36948056707467
C         4.08009240834953    6.52181687736950   13.30188726796892
H         5.16112061494413    6.40906576561292   13.26248343160372
H         3.66981866819055    5.73336379691288   13.93055619024473
H         3.84867138242947    7.47861290685905   13.76176084611594
C         4.04159086925226    7.54133273379191   10.99338865793602
H         5.11982729571617    7.43500787163357   10.89715936274349
H         3.83284818245465    8.52440176673382   11.40596138147336
H         3.59877125750240    7.48507270636081   10.00077981155074
C         5.84963384050971    2.93243486651545   12.81116495961270
H         6.44953465278851    3.82167529037988   12.63146227603314
H         6.38075837173829    2.28920556664378   13.50849451067744
H         4.91005531417175    3.23171497920993   13.27308725245395
C         0.43931942061885   -0.98785165964127   10.89400267377254
H        -0.63033506690218   -0.84797477548364   10.75550393839723
H         0.60056918284868   -1.97855881527888   11.30975193012486
H         0.92276282917509   -0.94142616518730    9.91997084022896
C         0.34451892671887    0.01710881662433   13.20667583914804
H        -0.73255189429320    0.14289332103536   13.12582469375938
H         0.73700577854021    0.80239120709809   13.85059521165350
H         0.54665490270268   -0.94265920590748   13.67443776055699
C        -2.22223213764775    4.57882746701180   10.49427584506965
H        -1.86355690508387    5.08836143590446    9.60206649565889
H        -2.94365582608110    5.22116249247399   10.99092334050240
H        -2.73489854890486    3.66898853988943   10.18982484109829

