96
CSD_code = DELHEK | q = 0 | S = 0 | Stoichiometry = C50H38NiO4P2S | MND = 4
Ni        2.37527646630401    6.98691404363735   14.07816580110968
P         1.33642534266655    5.08362388907492   13.94466744908133
P         3.58053703024015    8.71363134304050   14.62608803610354
S         1.09109492598585    6.90083478385287   16.36982053525037
O        -0.19635024101820    7.07525554377743   12.78047361363834
O         1.14052809924761    8.00450638292431   15.39177435491966
O         2.20169877472614    5.96122600055643   16.18380316251794
O         0.89351930639823    7.34928887396442   17.71942719606480
C        -0.64964860207808    6.25621575276949   11.78372478993889
C        -1.85934318087155    6.67435199446577   11.30986441241692
H        -2.44341681945441    6.20988708089877   10.54187223091816
C        -2.21647031053208    7.82345822951374   12.06646302308088
C        -1.15341667847113    8.02279688214128   12.97076111023603
C        -1.17073697035277    9.05403921973251   13.89656892959063
H        -0.36606703752045    9.17433306411609   14.60179667937013
C        -2.26995305132109    9.88906238516747   13.88938419869688
H        -2.31605287496730   10.70035490617461   14.59999238804616
C        -3.32445317639574    9.71085907447256   12.99174729250773
H        -4.16311031412608   10.39077118153186   13.02328709281623
C        -3.31462699767562    8.68196833768163   12.07739495246569
H        -4.13052747869077    8.53409994334211   11.38631622163713
C         0.11355546982555    5.08731225873331   11.38354509838380
C         0.96362573483178    4.41781806328966   12.27709772673253
C         1.68187123270625    3.31998694291960   11.81368302756972
H         2.36813153199373    2.82140671670653   12.48190410098054
C         1.53329429034218    2.85466986088305   10.52091889012812
H         2.09883949647549    1.99707026787267   10.18884989660090
C         0.66300575421122    3.49487362054762    9.65368011894129
H         0.54162337394834    3.13875461433377    8.64168243379896
C        -0.03714164549697    4.60389177871926   10.08307309847447
H        -0.69120618320365    5.12420342046937    9.40008587915522
C        -0.29297742323916    5.19182804533740   14.75000482477163
C        -0.38482283510763    6.00350062060749   15.87024839129685
C        -1.58776140060205    6.20307600229594   16.51452670330211
H        -1.60410007385837    6.85019520767004   17.37776056695177
C        -2.72850965077787    5.57452388032077   16.04102604538021
H        -3.67649427786571    5.72488394690773   16.53543934490176
C        -2.65058168661118    4.75689116877116   14.92347014481835
H        -3.53935208983993    4.26876823468164   14.55020144491309
C        -1.44286737678467    4.56402163408627   14.27478925341671
H        -1.39486632633786    3.93662172878862   13.39453549320680
C         2.01409965098540    3.59214891410853   14.74757532159419
C         3.36903273796105    3.54293862498478   15.04662195835786
H         3.97878758697027    4.40202256076628   14.81146831815717
C         3.90820866154035    2.42487546415095   15.65555151615950
H         4.96244581067964    2.39183205731235   15.88968042599503
C         3.09557946515798    1.34812023373490   15.97135968608462
H         3.51380670626848    0.47521764803772   16.45126608726279
C         1.74276288157387    1.39442136462305   15.67791748161085
H         1.10626105488172    0.55786016631803   15.92861264597724
C         1.20035171844834    2.51176866260104   15.06777314597674
H         0.14321741109788    2.54135931122509   14.84341940815897
C         5.31809229810345    9.05414773753623   14.15620986532589
C         6.34742742564429    9.26218077254252   15.06435906589043
H         6.14886393248568    9.22313831979460   16.12600017891904
C         7.63011334985406    9.52416133741748   14.61233421221140
H         8.42606032691210    9.68632891229182   15.32492726754111
C         7.89455265887705    9.57906073218235   13.25490511899485
H         8.89724021715594    9.77979775080646   12.90711967534710
C         6.86952682227559    9.37742370406633   12.34341912201542
H         7.07081446834367    9.42108435502518   11.28322147213555
C         5.58987861535858    9.11641531120078   12.79172991260361
H         4.78399556443391    8.95444257946489   12.08867790677418
C         3.59376568695495    8.86545480981490   16.43226674518423
C         2.88385879617898    9.83614389289207   17.12492037142608
H         2.33982963092347   10.59714197904502   16.58393723898284
C         2.84739701263536    9.80625930248053   18.50709851548754
H         2.28713289800213   10.55811891865559   19.04374258632757
C         3.50058471462117    8.80354127739365   19.20189918229539
H         3.45187284979386    8.77482865489665   20.28051665059418
C         4.19316881038020    7.82115482660587   18.51387080858188
H         4.68151278047490    7.02259512732749   19.05334298003457
C         4.23538602413333    7.84767870308082   17.13390080781707
H         4.74468101367773    7.06522852389017   16.58490408591821
C         2.82950295483809   10.23435850086898   13.97404788340705
C         1.79979261366408   10.08982275380485   13.05366540301925
H         1.49029691324613    9.08217825950587   12.78868992609600
C         1.18857900797340   11.20447732797402   12.50881872062731
H         0.37678936124679   11.09019335412412   11.80495491113445
C         1.61951929263811   12.46936121110651   12.87442389978387
H         1.14326439497579   13.34398533718873   12.45576317977164
C         2.66598079666274   12.61788572499744   13.77224078604148
H         3.00559057265653   13.60685934995100   14.04458697331151
C         3.27680336314338   11.50453514477260   14.32076170516929
H         4.09979690726207   11.61549742131115   15.01378213272521
C         3.48191720731307    6.52033045485542   12.66667356323449
C         4.78487560652106    6.05622137822832   12.85068717625936
H         5.20406660073642    5.98501738057513   13.84761387776748
C         5.57596503395631    5.70619518937667   11.76905674925319
H         6.58105217598297    5.34641276880367   11.93721143960641
C         5.08948579726025    5.82515851559774   10.47954049291493
H         5.70613595623228    5.55012898912122    9.63650781550940
C         3.80962694591707    6.30990957910963   10.27853252296458
H         3.42203150770661    6.41941120587473    9.27553009782480
C         3.01465360714329    6.65382547846163   11.35960005018027
H         2.01849167396856    7.03296521210250   11.16904497331300

