29
CSD_code = DELHUX | q = 0 | S = 0 | Stoichiometry = C9H16O2SiW | MND = 8
W         2.14015054629064    9.62702644697141    2.46542214160083
Si        1.20368611703345    6.67023547295859    3.13858181460106
O         2.25801053998888    8.76032848326665    1.02005974160938
O         3.43932487003210    9.42668500715726    3.52230841308428
C         2.71505466587330   11.87038128182666    2.00236542735951
C         2.05464266569730   11.92379286717920    3.25502793241407
C         0.71831068232488   11.51425883998501    3.06294286550164
C         0.52556826395010   11.28113498839455    1.66771161809602
C         1.75093972875751   11.51386747645855    1.01691801219110
C         0.65742264578497    8.45957095203169    3.53327090237416
C         0.44110592029050    6.15856290860123    1.45718342996433
C         3.11415486130355    6.54337360345645    3.06459352487281
C         0.58162962525339    5.43591437226073    4.46999409642160
H         3.71130762815247   12.25216301212853    1.79930436071823
H         2.48346235239394   12.29225921439572    4.17914251094168
H        -0.07673051485504   11.60542927804701    3.79615039327233
H        -0.43011140340424   11.12743128860750    1.17922484428122
H         1.90939824981426   11.52921432797846   -0.05611947566274
H         0.68498504186204    8.61602002395688    4.62322458438775
H        -0.38752529271596    8.59433118005869    3.21083828988815
H        -0.64313002492099    6.11381448998944    1.49059825292228
H         0.73279579488983    6.88507635069087    0.70237018164789
H         0.79921153492613    5.18513269860743    1.13936268444051
H         3.47064891397010    5.52060765767808    2.97840323453045
H         3.47739455780365    7.11651168893700    2.20338676525309
H         3.56232092482518    6.98415995091211    3.95421912202512
H        -0.49842090214402    5.46430046094779    4.56411500150232
H         0.85806387002667    4.41983121749051    4.21331150457305
H         1.00252813678850    5.65208445902984    5.44598782519024

