19
CSD_code = DELJIP | q = 1 | S = 0 | Stoichiometry = C6H8AgN4(1+) | MND = 2
Ag        0.56342866309265    4.02695002281710    6.67361671130691
C         4.06161346252731    2.68237671072829    4.45975262325043
H         4.71806124551578    2.79982549589137    3.62180548379760
N         2.33813107126541    3.15069259067954    5.77218699451028
N         3.01178334918170    3.48910783764782    4.66239073769813
H         2.71894378366743    4.26564874088369    4.08662521449362
C         4.07685284122651    1.76806498587170    5.49035842898217
H         4.77562343865206    0.97477697017080    5.65000659117238
C         2.98129506689484    2.10190755238336    6.28322929868823
H         2.64089868465280    1.63100933680662    7.18718375050632
C        -2.93425738418913    5.37193504619598    8.88807896092898
H        -3.59065082539895    5.25454134898069    9.72608338892397
N        -1.21097818540864    4.90341561317076    7.57542547143587
N        -1.88454418149339    4.56507568445915    8.68530246403339
H        -1.59174016116361    3.78848337008124    9.26101996978834
C        -2.94949046972994    6.28627265333413    7.85749884450385
H        -3.64821075951411    7.07961419310676    7.69790694052556
C        -1.85406783692333    5.95230331006490    7.06449268945848
H        -1.51369180285538    6.42319853672608    6.16053543599548

