46
CSD_code = DELTIY | q = 1 | S = 0 | Stoichiometry = C24H16ClN4Zn(1+) | MND = 5
C         4.63566920952286    7.80916566660458    8.46569544444487
H         5.35233168486098    8.04020319905791    9.24071625509679
C         3.75981584821079    8.78835545585513    7.99255101370032
H         3.79986757896517    9.78498040900073    8.40147224933507
C         2.86662031552220    8.46094414719332    7.00035296096362
H         2.18506168294643    9.19466899513108    6.59675835526982
C         2.84434510662193    7.14630905844757    6.50550170106502
C         3.75591581781332    6.22178156207819    7.06432965575035
C         3.75503438729270    4.86538080021338    6.59782178151368
C         4.65088150657869    2.76126180651337    6.72230564516037
H         5.36571059460048    2.10365956693576    7.19736505896434
C         3.84667825273934    2.30073075765549    5.67645814099087
H         3.93713223432526    1.27988033715148    5.34221254201239
C         2.95154012535169    3.16488683720893    5.09319435652071
H         2.30742875915732    2.84481221491813    4.28790484407979
C         2.88354796350931    4.49211697343913    5.55095354510802
C         1.98733093003377    5.45501389678938    5.00341811602961
H         1.32915561162541    5.14305527794392    4.20693157334575
C         1.96055141549319    6.72647550340341    5.46968909356770
H         1.27697669126857    7.45353004414608    5.05871272400772
C         5.32828573530404    2.77373278292509   10.29657491130430
H         4.52175536735482    2.56304722345350    9.60889885991754
C         5.57820130086268    1.92849939275110   11.37962060235180
H         4.96315451984667    1.05616478942382   11.53083858429067
C         6.61802271509873    2.22279079289558   12.22912711510093
H         6.85343175315385    1.58427235322721   13.06737150854493
C         7.38562358427440    3.37650704708365   11.99799572464099
C         7.03974795145375    4.18046794282406   10.88800330365846
C         7.78808113244359    5.37588228595758   10.62643098662616
C         8.12081867754577    7.21691275861319    9.30540572311956
H         7.79955313491439    7.79083904093031    8.44715672558822
C         9.24016225946612    7.60915904513404   10.04420031529050
H         9.78612441826531    8.49365302075313    9.75854631697219
C         9.62311350255245    6.85379566890252   11.12634004060668
H        10.47790382493549    7.12785361959681   11.72639161322910
C         8.89040461146863    5.69832168929970   11.44842156751126
C         9.21776494530592    4.85617742645047   12.55009942357398
H        10.06329253431446    5.12651074131557   13.16400217568055
C         8.48816055787776    3.74748786272500   12.82075233794979
H         8.73309983517391    3.11349753935192   13.65912836459617
N         4.64114090410340    6.57225786513170    8.01357834454292
N         4.59961891537193    3.99574082863378    7.17547049618354
N         6.03732858901126    3.85640958561035   10.05264276967289
N         7.41226945653191    6.14565073160863    9.59219485991763
Zn        6.08022417946916    5.05382470972680    8.31240058740133
Cl        7.61651987746460    4.71833074598367    6.82546168479855

