77
CSD_code = DELTET | q = 0 | S = 0 | Stoichiometry = C32H44Ti | MND = 12
Ti        6.30173780755136    7.06138971485993   11.52327843606916
C         1.92554578043261    7.15471011617963   10.88261744876714
C         2.13144918283201    7.21611735755342   12.37526651984908
C         3.30747081766161    6.91813756141581   11.49463341866393
C         4.40601671287730    7.95465837382295   11.33578265677717
C         5.17771197880078    5.40363041437475   12.12423635500552
C         3.81586975511633    5.48470040155615   11.43409782035786
C         1.63387629100350    8.32815142811390   10.04157750064746
C         1.89487371858720    9.63794143042496   10.43704375148624
C         1.64666195310104   10.69933095286915    9.58557200270420
C         1.13326839436056   10.47892418541723    8.31964028680166
C         0.86214426376838    9.18278695502468    7.91413716537367
C         1.11067775391341    8.12348222768258    8.76507474462446
C         6.27727524188813    7.79528784400456   13.63273303709892
C         7.31726618573522    6.80862613345315   13.67526168026837
C         8.48900922834859    7.37028522537125   13.11354167281859
C         8.18772528623877    8.67893536963825   12.68055288383334
C         6.82517274128088    8.93619768183708   12.96140193585005
C         5.07137587987644    7.80831888022397   14.53831614252926
C         7.33480930948259    5.54942951212928   14.49767306559467
C         9.84343510907856    6.74660926761788   13.27323156154369
C         9.15728310396080    9.76102191073725   12.30829451408293
C         6.21498796578044   10.30531608099982   12.83424879034655
C         5.94030026742090    6.87443423041059    9.12695695733620
C         6.43992447827002    5.61782836223613    9.54225661795959
C         7.74046617602993    5.81892689705259   10.08466573754566
C         8.07759019553329    7.18706710978085    9.93263911647245
C         6.93500023707888    7.85472394425789    9.41344027411439
C         4.74060180946674    7.07782229012893    8.24533539918042
C         5.92355417024957    4.27391755990130    9.11461803798255
C         8.67146736160641    4.69587927962095   10.44081948633717
C         9.48398552759180    7.70471080693746    9.85142413503940
C         6.88509611802160    9.29070062611066    8.97143747102005
H         1.43508640377999    6.25458886418913   10.52260758653891
H         1.69510120436052    6.41990906358350   12.96380500103546
H         2.06862437279644    8.18191178640373   12.85566919765686
H         4.29075422750019    8.46402448151597   10.37120365930876
H         4.26129417334194    8.72359148530421   12.10072469646077
H         5.64328537686206    4.42793308709150   11.92150885371605
H         4.98476933830807    5.43635492267846   13.20239905073868
H         3.08986126999410    4.80637468226844   11.90718217595742
H         3.89910278047218    5.18093590836213   10.38850651985783
H         2.28722056188529    9.83988533563049   11.42156249416585
H         1.85635638474596   11.70774971784210    9.91427739681418
H         0.94200731758955   11.30947282359908    7.65594627013873
H         0.45641773992867    8.99752107931458    6.92974968593332
H         0.89629576062918    7.11520261202081    8.43749914618939
H         4.76231245534560    8.83412387727490   14.73560024373204
H         5.33344765539465    7.35740501180548   15.49679165181868
H         4.21534740147874    7.26994921139602   14.13096383639552
H         6.36420148153804    5.34859213174270   14.94566729210151
H         7.62606053752546    4.68161155696945   13.90274131694982
H         8.06360670434238    5.65380033533409   15.30598235930129
H        10.61689660454480    7.30994728968420   12.75655072839210
H         9.85929566011342    5.71626652373730   12.92000919892746
H        10.10690045644366    6.72978036263206   14.33446070974188
H         8.80118770845947   10.35797691406699   11.46908500852265
H         9.27475877571872   10.43870684518421   13.15894712367870
H        10.13989975291117    9.36585308283112   12.06744577396187
H         6.86470534931531   11.04041708386368   13.31476261719072
H         5.24101189945735   10.35876583436088   13.31704673688730
H         6.09474215212734   10.60100398131059   11.78945907356635
H         4.91840357299404    6.59157503142479    7.28278228133090
H         3.83248971589760    6.65629799908786    8.67223255841741
H         4.56344045046579    8.13363502245037    8.05268692077347
H         4.95293227057701    4.35944298090672    8.63258368772044
H         5.84376184994283    3.56787657414355    9.94065961915184
H         6.61904729513519    3.84554090167853    8.38720006825798
H         8.80178946981737    4.03403047143414    9.58064011835755
H         8.27507928347222    4.09210274604877   11.26137204577094
H         9.65185244488179    5.07200913051207   10.72302130279615
H         9.92807306696598    7.33353675057743    8.92226507161916
H         9.51240718869395    8.78920177218199    9.81402269402549
H        10.10782698312090    7.36036602341678   10.67038747451384
H         7.17213143013743    9.37353974613924    7.91938239895769
H         5.88109195002309    9.70498819699864    9.07682792416031
H         7.56989071801098    9.90720062924548    9.55287380438613

