36
CSD_code = DELVUM | q = 0 | S = 0 | Stoichiometry = C15H15N3NiOS | MND = 4
Ni        2.54393341550559    9.61642300451968    5.03570993942502
S         3.47404586883845    7.21636525256694    1.39042398041059
O         4.20282408151451   10.15451405490388    4.54074906146781
N         2.52314557930033   10.75681983731319    6.49862890379635
N         0.71100975506180    9.06014427190522    5.59373298767611
H         0.63204849044788    8.04715903407313    5.48495460086341
N         2.45992761557246    8.42976530968921    3.64384962651094
C         5.01195622561329   10.96705143726328    5.10948918080555
C         6.28698255599686   11.14163220658128    4.47855190590375
H         6.45877212109240   10.57468477373292    3.57675012000227
C         7.21783472924141   11.97451443104181    4.99394476614762
H         8.17399413795149   12.09360032097363    4.50405137729212
C         6.97994882189122   12.71160186399964    6.18618980017878
C         7.97040542487584   13.56116170907220    6.70330064174305
H         8.90899217191226   13.64103350375448    6.17372509852145
C         7.75865368834867   14.27498791226621    7.85408342769932
H         8.52401900185402   14.92648507933451    8.24798029176775
C         6.53794206482130   14.15090634482472    8.51717217030044
H         6.36460164816987   14.70896382146008    9.42596161916828
C         5.55436222914445   13.32618644578011    8.02859597150012
H         4.62944200158692   13.26401807545045    8.58117640099705
C         5.73573317927935   12.58003706141570    6.85114124167020
C         4.73652732062370   11.69990544570780    6.29908600702716
C         3.47486015377962   11.54091937971735    6.91029924850795
H         3.27253026243390   12.12696997081463    7.80542745807225
C         1.26564579964781   10.76100679579679    7.23482934330812
H         1.43020677538998   10.94496171609546    8.30414238856587
H         0.62399182984145   11.56381427681706    6.84886849029383
C         0.59513053758896    9.40364268275300    7.01835611371673
H        -0.45388486762745    9.42612253600208    7.34219302440176
H         1.12956397895058    8.64817584692010    7.60108246459512
C        -0.35017257367861    9.65881944556167    4.77719737134402
H        -1.34073075262285    9.36768868296653    5.14591939865328
H        -0.23944819442559    9.32413427634381    3.74705297425125
H        -0.27444144152293   10.74520737830971    4.79496940885295
C         2.97514636359875    7.96037581426950    2.68441319456287

