90
CSD_code = DELWAV | q = 0 | S = 0 | Stoichiometry = C46H36NiO4P2S | MND = 4
Ni        0.05479867202008    7.28062427691517   10.31037858361397
O        -1.89477021679683    6.80761806257482    8.64551503033815
O         0.84139339751926    7.61006610813010    8.40621289483909
O         1.99323545436278    6.03995525619320    9.88597665911930
O         2.97597454244049    6.65907913996519    7.73094465229609
P        -0.36492088587245    5.13690928530138   10.20820506601816
P         0.97888809634614    9.24789776387535   10.50665194680153
S         1.77804493372493    6.47339262407013    8.50056451467731
C        -0.17152625799579    4.56767702533594    8.48640435423527
C         0.84072634279697    5.14437511087814    7.73550481315392
C         1.04851954758859    4.79334783121325    6.41787507633737
H         1.84913264824487    5.27785858895950    5.88069630205211
C         0.23615802650259    3.83709189628821    5.82980316810934
H         0.39162179634382    3.55004006050865    4.80055604159520
C        -0.78491565484857    3.25554833062321    6.56655302118249
H        -1.42505211851788    2.51498808922403    6.10907069474351
C        -0.99561812449511    3.61666532025210    7.88623905882421
H        -1.80368169861812    3.16598201021599    8.44658849178963
C        -2.07874308424012    4.59445441490902   10.57969592223258
C        -2.33740947516441    3.79150755410940   11.68374892577257
H        -1.51028691123807    3.43681553367807   12.28100287317981
C        -3.62987808555265    3.43430355371712   12.02309508481106
H        -3.80650475847137    2.80416579753360   12.88189569321863
C        -4.69374541572294    3.88597379819953   11.25975033809361
H        -5.70478659516743    3.60696435958001   11.51627186985044
C        -4.46026821167155    4.71140098862495   10.17690890401039
H        -5.28855922576980    5.09008577312206    9.59717053112665
C        -3.16279209307776    5.09015251222666    9.83654962462652
C        -2.95825636369523    5.96811051838152    8.69554817988677
C        -3.68823956365382    6.08988305268125    7.54108110483489
H        -4.57605299263204    5.54961125203214    7.28297680155161
C        -3.01697618935127    7.04204323740810    6.74271220083345
H        -3.30145646491388    7.37929043245574    5.76716588004233
C        -1.93623577270026    7.44410787663274    7.46331124861092
H        -1.13789515490199    8.12728480161418    7.25014395683707
C         0.61133219307190    3.88216691161699   11.09824693988553
C         0.65780182250422    2.55830583155993   10.67604432485370
H         0.10390680932729    2.24554292686676    9.80213597371607
C         1.41719071956278    1.63638631281226   11.37451463135357
H         1.45326924688895    0.60896584498323   11.04143581600314
C         2.13368528491488    2.02745539108337   12.49376299076942
H         2.72879015614402    1.30460653901571   13.03275844708689
C         2.09112651904026    3.34643552190752   12.91474401680615
H         2.65396043267280    3.65376803530292   13.78419436954364
C         1.33325356372158    4.27044427292670   12.21890850220767
H         1.30019278034788    5.30621703792484   12.51908469736292
C        -0.80340373451340    7.38704063622440   11.95027066308107
C        -0.08526505045909    7.42764445342237   13.14668740852423
H         0.99891580802867    7.42035904249356   13.13151019370115
C        -0.73530368765783    7.50738717450704   14.36662652278481
H        -0.15728050273986    7.53660850045363   15.27936354649311
C        -2.11687488470424    7.56110093708426   14.41919051009244
H        -2.62424276853544    7.62273912327809   15.37069717966298
C        -2.84224518906153    7.54465162433017   13.24180466236531
H        -3.92155086891468    7.59603761052609   13.26846400236082
C        -2.19357939034083    7.45776490665650   12.02016605920997
H        -2.79196278345582    7.45041594317293   11.11827514192309
C         1.13430656121573   10.22759109980635   12.05039370670416
C         2.33320993695369   10.71140866994332   12.55584672829427
H         3.26205237507335   10.49877066143218   12.04602996954531
C         2.34315456169348   11.46914980581102   13.71526406730860
H         3.28056513235834   11.84156975720918   14.10289467780856
C         1.16032363406027   11.75073374098535   14.37621197440639
H         1.17369938353936   12.33861110763853   15.28224269704714
C        -0.04116006383178   11.27893129517769   13.87064234082901
H        -0.96752375504591   11.49870407851672   14.38054234692705
C        -0.05307460784781   10.52339199709857   12.71493900258268
H        -0.98538203188271   10.14883739031158   12.31441052528041
C         0.17195932612685   10.54110620301539    9.51512624231091
C        -1.12310188500179   10.30027117962871    9.07699109380218
H        -1.57826468391490    9.34779862755496    9.32592829379012
C        -1.80395024341839   11.25853361805564    8.34758818693248
H        -2.80780256743246   11.06374144062680    7.99840789107239
C        -1.19343156573651   12.47001693551684    8.06757551570490
H        -1.71819493033341   13.22015915477380    7.49406049188876
C         0.08784872930429   12.72713714644650    8.53115249997893
H         0.55414120544959   13.67967264564249    8.32450527150464
C         0.77043917371242   11.77008885157085    9.26001849427628
H         1.76359455721160   11.97436229410862    9.63581203278014
C         2.68735392377768    9.12874269062710    9.91392336799034
C         3.56211140226480    8.36703215918559   10.68517983120637
H         3.21299539720033    7.94044644849054   11.61730839184409
C         4.85139870551114    8.13383472750798   10.24926879868968
H         5.52203326861286    7.53235723664941   10.84589550825917
C         5.27332121457988    8.64953504024201    9.03508152478129
H         6.27687980770818    8.45597494999372    8.68561550580766
C         4.39997707130196    9.38685392107819    8.25520643337060
H         4.72027335705708    9.76389267271899    7.29497547956546
C         3.10602808096254    9.61849337124685    8.68448847883915
H         2.41328090654443   10.15433226586230    8.05181652157841

