79
CSD_code = DEMBOP | q = 0 | S = 0 | Stoichiometry = C38H28FeN10S2 | MND = 6
Fe        4.31920593084727    4.14883090476449    1.23144544268584
S         3.62392023713956    7.62514100385652   -1.69378523969704
S         5.34100341191448    1.15905889680812   -2.12472568119615
N         2.51646716951638    3.46100774895336    1.45344484021128
N         4.21991765842500    5.38377160911489    2.71537127534916
C         3.08712243807912    5.51463465810550    3.50617986753509
C         5.93108191598939    2.57058300294180    3.12288919349052
C         3.76075764486077    6.38289512821272   -0.72460931066010
N         4.67511347679504    2.79132535682821    2.57598375440440
C         5.35564431798184    5.91027699285665    3.07948149070245
H         5.45022133656832    6.53072236000897    3.96455581065039
C         3.61127151819695    2.25667355818285    3.10567531243395
H         3.66254925189127    1.56905710104405    3.94375108503527
N         6.15142876771282    4.85131030246049    1.17416767699442
N         4.60107869575588    2.93117068127595   -0.14667082548382
C         2.37536817179586    2.59368238421336    2.48766318188728
C         0.71798922610897    5.90719448199768    3.62833292122879
H        -0.21643944904959    6.20771219393786    3.17926284037738
C         1.88318748518878    5.89857537755723    2.90473512841138
H         1.90383806141630    6.18917899319988    1.86597446481274
C         0.72076437457519    5.53339972189172    4.98380988334000
C         1.43606332730848    3.78368772321798    0.75279972629920
H         1.60694635587209    4.44523952710802   -0.08335429238619
C         6.99345303156551    2.23978038713461    2.27192511595116
H         6.77760237230458    2.07677806063522    1.22819319022536
C         4.90668115271666    2.18793208795117   -1.00337516443035
C         1.93934074194259    5.22024215812587    5.60155081779556
H         1.93753568753181    4.95558551998226    6.64782337517650
C         6.17357872414332    2.73345789588669    4.49062385584994
H         5.35307069135711    2.98642642374626    5.14762161920175
C         6.45992055464360    5.65930902079109    2.21971944222860
C         7.44776284162475    2.60514350853049    4.99065910174399
H         7.65481610730616    2.75566070530972    6.03980685367980
N        10.07329727911497    1.98385069827714    5.75625062138129
C        13.94315224088908    2.38348446150041    7.20772792130102
H        14.94080805769433    2.48314349384053    7.60885575115000
N         3.79835222529691    5.47353128788723    0.01902817418789
C         1.12389701183578    2.09761835728607    2.87147178243336
H         1.05550443185377    1.42771715209195    3.71422405057976
C         8.51765268408602    2.29584571347414    4.13644004853311
N         9.82111196939893    2.28041106619134    4.54886978740323
N        -1.52208564561848    5.34618536738275    5.22690657835636
N        -0.39853660298431    5.57493693341884    5.76727853500378
C         0.17117834221397    3.32054652450864    1.06309523892478
H        -0.67283585990519    3.61582294789132    0.46165055616025
C        11.37954776164303    2.12827612189996    6.17503205397766
C         8.26617681680173    2.11161970920363    2.76738618212016
H         9.08805265642174    1.84544829582371    2.12125152483868
C         3.10439076988000    5.20902264398662    4.87180380131338
H         4.03927623500291    4.93588167109108    5.34013266604798
C         0.00782386156607    2.47567085367908    2.15913861892590
H        -0.97106073288264    2.11630073631239    2.43569964764005
C        12.36410295570434    2.81986190914822    5.45570904732249
H        12.09965106392617    3.24928141549859    4.50091114880739
C         7.09077695539331    4.61544268762515    0.26694303471741
H         6.79088383442861    4.00134667979649   -0.56857013205182
C        12.97329934937922    1.69971500660586    7.92652652400196
H        13.21861118936493    1.26682827584407    8.88507087601108
C        13.63446230863073    2.94324782713419    5.97503058222720
H        14.39373159351681    3.47692404781162    5.42188857752291
C        -2.64794183034214    5.56931066806728    5.98839436528439
C        11.69588964601170    1.57465024879751    7.42046690665434
H        10.92673615952839    1.04483446099035    7.96106307461524
C         8.37637549770699    5.11584384180022    0.36337704391913
H         9.09806968613585    4.89440353490900   -0.40550418619613
C         7.74486847855432    6.18698371413593    2.39422532802051
H         7.94908942505446    6.80987223563879    3.25097123902803
C        -5.03053824308391    6.01976075868347    7.33943368274908
H        -5.95769080642135    6.19756260920852    7.86362137859089
C        -3.84133593191439    5.00849070452583    5.51911648509418
H        -3.81141911342871    4.39737348710067    4.63020429263568
C        -5.02078814242213    5.22875383368629    6.19932552822153
H        -5.94014862780184    4.78998832280120    5.84077634875700
C        -3.85290324283444    6.58936598720594    7.80438648668433
H        -3.86818967932778    7.20944314654871    8.68886538250434
C        -2.66578780272449    6.36770875735030    7.14048089264970
H        -1.73900960696794    6.80707177099927    7.47820005854460
C         8.71628501085469    5.90409343230255    1.46024306915456
H         9.71625314104888    6.29488112340332    1.56817266978531

