79
CSD_code = DEMDUX | q = 0 | S = 0 | Stoichiometry = C38H33MoNO4P2 | MND = 6
C         0.96090589985732    5.79217756426643   17.39105698292585
C         3.22640682858936    6.28182631517976   16.02345705996385
C         1.77719712510392    3.37011333253580   18.19169445216648
C         1.72320500243492    4.08689006257867   15.51278518255489
C         5.43787743782626    4.34789411662702   15.12185338417966
C         6.66354756050139    5.00214163206543   15.17228012440209
H         7.24398168372477    5.02398294115675   16.08353853234206
C         7.15838202769138    5.64252919332001   14.04768942499075
H         8.11041802761358    6.15153849427202   14.09985377150053
C         6.44246453035893    5.63467221575395   12.86445045460483
H         6.83119164007632    6.13917335762965   11.99246633430286
C         5.22314621365444    4.97776275566049   12.80347558629315
H         4.65943357315980    4.96563830118384   11.88240339392584
C         4.72468616583016    4.34407906614859   13.92402338788864
H         3.77095938225799    3.83202417938710   13.87941536949071
C         4.42053315193341    1.89144701766207   15.80414129330178
C         5.49311106073316    1.27676139339090   15.16125270300366
H         6.44541326977041    1.78588169270940   15.09157680712949
C         5.34118232626058    0.02724608296002   14.59101026613093
H         6.17747197665949   -0.44169731309249   14.09294897552223
C         4.11721370989898   -0.62098641851692   14.65088621874814
H         4.00075614063627   -1.59639634419440   14.20221389550010
C         3.04417665543201   -0.01198925536694   15.27834681867324
H         2.08666000624722   -0.50965504702112   15.32137851511443
C         3.19457704032829    1.23963562999043   15.85156551902650
H         2.35658150611905    1.71742655090454   16.34305334494739
C         6.06375475875743    3.26079431965071   17.64792705074283
H         6.89718524497384    2.87363065776771   17.05304601907910
H         6.34917890768659    4.23616699842271   18.05474442640316
C         5.77323061117371    2.28092878190056   18.78178552394890
H         5.59904941721340    1.29154498497829   18.35897273940727
H         6.66868803880406    2.20743697028581   19.42494399277024
C         3.78909114888358    1.64611180642334   20.04920781065033
C         3.39232327665706    0.62136133200662   19.18411146429009
H         3.73480206853373    0.61504829977486   18.16118920106701
C         2.53240774007822   -0.37521186677430   19.59495420976348
H         2.24402277081207   -1.14364744544137   18.89227162650493
C         2.03254950965688   -0.38849252632557   20.88598727501967
H         1.35465865405105   -1.16474944055374   21.20612342462034
C         2.41092936605621    0.61796683855105   21.75322188724572
H         2.03277681053334    0.63050752345111   22.76566170557985
C         3.27463920256758    1.62015593838395   21.34779487560794
H         3.53990049827547    2.37397346723419   22.07183896930748
C         4.90342747649061    3.77168866761772   20.48246405986645
H         5.73431198235279    4.35324742880488   20.07289251200201
H         5.23140478578004    3.40600882520918   21.46977201025365
C         3.69556578316728    4.69601497618642   20.63496650284779
H         3.81990363308342    5.34040331864660   21.51153464532470
H         2.78883086481079    4.09882266062092   20.75794271436313
C         2.25984549924005    6.96336685713817   19.74677561789724
C         1.22670321125500    6.62453998996142   20.61373465481082
H         1.15764066053063    5.62306708267174   21.01581383859719
C         0.26823810074024    7.56398708821490   20.95081758709367
H        -0.53208374451399    7.29407610991701   21.62449576985199
C         0.32521828683379    8.84117460670218   20.41981067191540
H        -0.42774516225945    9.56955673971036   20.68170776739898
C         1.34036889702444    9.17842981574908   19.53893043214188
H         1.37876863295740   10.16921955010026   19.11027408148651
C         2.29879560254340    8.24359240175419   19.19908976507899
H         3.08455891497273    8.49746548545792   18.49746433567222
C         4.97045438016723    6.75762444571373   19.19192728216040
C         5.33040810406256    7.45881503525102   20.34096805634702
H         4.70082915098760    7.41516898196439   21.21930301304848
C         6.47739865897944    8.22917407082387   20.35297223030255
H         6.75121809552750    8.77185949911735   21.24608801156178
C         7.27321790108835    8.31481608170841   19.22027366832994
H         8.16743340750005    8.92024826747336   19.23406275058191
C         6.91283816157559    7.63442828037269   18.07004308988131
H         7.51956018057488    7.71105699398307   17.17925993172107
C         5.76466060439310    6.86099147821854   18.05794958674324
H         5.46692529941591    6.33832823779085   17.15626497548296
N         4.62220693676058    2.67288821708268   19.57678865979018
O        -0.01760589006377    6.37399050023087   17.50018890867210
O         3.48356351857461    7.18043859301985   15.36488604813471
O         1.15310610993087    2.64856351194742   18.81950182689090
O         1.13816722200526    3.73752802715722   14.59235956872065
P         4.60631543978781    3.55190978947058   16.53967951957274
P         3.45473789864299    5.74081297309996   19.13299159846292
Mo        2.59184342766507    4.78085125418513   17.10360430635734

