45
CSD_code = DEMFUW | q = 0 | S = 0 | Stoichiometry = C15H23MoO3PSi2 | MND = 9
Mo       -2.18558683480626    9.69821629992987    8.84006196795223
P        -2.83280016893789   11.52202890247772   10.50614461714151
Si        0.17250328934490   12.55114106719775   11.31362174098348
Si       -2.74913149194761   13.78153084425033   12.30167649776505
O        -0.86643235788506    9.34074128175972   11.60358354714657
O        -1.17982457213093   12.50365402799645    8.04725306457250
O         0.66408011855612    8.97696197138680    7.92076910459205
C        -1.32610996446041    9.50876574710498   10.55910027812154
C        -1.51728813417970   11.45096354778867    8.37689653074239
C        -0.40504681039612    9.23008623692256    8.25295327296697
C        -4.29793550465085    8.85197631190879    9.23821337571841
C        -4.40243425440516    9.79908066078321    8.19360492463050
C        -3.67282049996416    9.31195293519616    7.08428156429185
C        -3.13327383176743    8.05852428072792    7.44448927014757
C        -3.50419659684162    7.77584092386099    8.77693345417119
C        -1.73651244049177   12.48074480025882   11.31275714096592
C         0.72209210711655   12.04811318659989   13.07194002042232
C         1.22175384340617   11.49484319658015   10.12024530010260
C         0.61852308938145   14.36363532865156   10.90719181521034
C        -4.38709826303166   12.99571091554152   12.89082435428752
C        -1.87428263605932   14.46911402515098   13.85055389979827
C        -3.14418623969653   15.20672808372948   11.09331097050243
H        -4.86484063798304    8.86707765235913   10.16237087738827
H        -5.06157361746616   10.65996119551585    8.18644628158613
H        -2.62372550535544    7.37630716115201    6.77451599597206
H        -3.68806320131752    9.72726369338330    6.08346616832174
H        -3.37028317919202    6.82523809301612    9.27974925740600
H         1.80358541702576   12.08718079051997   13.15784546780902
H         0.41164672808396   11.03240222979761   13.29559309582582
H         0.30712772690789   12.69624091583919   13.83404493910771
H         0.99464133600264   11.68714299245647    9.07692305574263
H         2.27143709030798   11.73613784188557   10.26787318252349
H         1.11103376143564   10.43029869616892   10.29955765106469
H         0.15915125342980   15.06453090017746   11.59448514043691
H         0.29506051629676   14.62428911867693    9.90427807189243
H         1.69267390495824   14.51206953313321   10.95373508209151
H        -5.04296709113659   12.78368604668929   12.05205062925936
H        -4.92065714587213   13.65096615653101   13.57224533264171
H        -4.20327919043019   12.05863768947716   13.40777661414815
H        -0.89321922500679   14.87282442834307   13.62964128364017
H        -2.46756572795379   15.26864921859134   14.28285369555867
H        -1.75731442359145   13.70447328517357   14.61116232275782
H        -3.60648696376892   14.82162430144232   10.18921603079667
H        -3.82450702607028   15.92674138565946   11.53672288196067
H        -2.24556664544472   15.73810209819921   10.79904022984146

