87
CSD_code = DEMGAG | q = 0 | S = 0 | Stoichiometry = C44H38O2P2Pd | MND = 4
Pd        6.33800673806857   11.14066890974835   10.96276834990702
P         6.38382189079878   12.70478544259107    9.35962712109935
P         6.02682786140120    9.61915086124707   12.58115213248169
O         4.89005501134964   12.40388715715095   12.02684246042719
O         3.76178757960125   11.01761579160400   10.72031162956439
C         6.27366338897424   11.93035517821503    7.71885514351653
C         6.95786792519266   12.33511855665962    6.58179149735561
H         7.62231464331081   13.18666474076011    6.61926615651240
C         6.79857126360262   11.63099459171712    5.39950047789377
H         7.33362641063535   11.94320666991448    4.51415060618819
C         5.96186568236258   10.52906215826563    5.34911617011524
H         5.84334156166938    9.98559916160418    4.42299766746170
C         5.28554613879960   10.11557896290557    6.48735166183237
H         4.64107048984703    9.24943802120655    6.44760634184278
C         5.44640248115220   10.80734189132892    7.67234032783984
H         4.93695071576166   10.49425484861977    8.58344177634668
C         7.77493352244501   13.87017357424550    9.30448343973187
C         7.78227374273216   14.99742418375690    8.48885639641630
H         6.92892742278686   15.20937551640787    7.85839076843446
C         8.87159879890248   15.84919058822574    8.50536341635658
H         8.88089040190922   16.72373364421857    7.87089520022051
C         9.94872947010062   15.58730517597430    9.33840345517654
H        10.79597247467013   16.25730317074471    9.34712214967931
C         9.93520856742210   14.47755171908993   10.16770467447106
H        10.76979367094912   14.28498217743823   10.82604506154150
C         8.84848375041228   13.62167593885376   10.15250025857849
H         8.80692969630456   12.74982745326488   10.80334947107300
C         4.94597506401883   13.82016139126243    9.40499318715410
C         3.77840328779007   13.55210564971824    8.70040744180138
H         3.74500340080153   12.72816601732579    8.00161507489244
C         2.65312127822623   14.33087907004127    8.90615614525915
H         1.74515510261147   14.11292421396531    8.36291347845709
C         2.68197381890428   15.37324118437236    9.81612388129708
H         1.79627207951072   15.96748632953439    9.98636954724947
C         3.84439801829898   15.64427942414058   10.52029191541021
H         3.86588526458210   16.45238852423415   11.23709532261749
C         4.96981732862721   14.86872458126636   10.32217326309941
H         5.87158656624993   15.05616462197498   10.89144206827935
C         3.81443926684826   11.93929558171547   11.55672697805256
C         2.53846317971310   12.54555930384253   12.05826085034020
C         1.31810020544494   12.03046779258103   11.64251235048006
H         1.31800337877349   11.19903709775648   10.95369020266076
C         0.13948713141497   12.57920209317218   12.11114455399554
H        -0.81127765841042   12.17743494553111   11.78996041860401
C         0.17551073174059   13.64604571495945   12.99439871720524
H        -0.74666783785477   14.07547453502284   13.36043304120881
C         1.39184528759343   14.16336478834754   13.40981357296226
H         1.41639459990095   14.99598559073851   14.09897171855869
C         2.57144252660226   13.61399094451587   12.94483245783112
H         3.53033051091501   13.99927443920179   13.25799029901147
C         7.77207741536396    9.98234359754948   10.02962023279270
H         8.42094214591877   10.56049640369732    9.36285520367688
H         7.26279344584772    9.22516778317527    9.42332278664911
H         8.40901513490032    9.45807149883237   10.75107152019864
C         7.27443612368889    9.67829078309564   13.90011156905088
C         8.30566688294828   10.59925779606360   13.74524530241681
H         8.31514054287401   11.22674208200023   12.85010156919503
C         9.28001309089615   10.72229219217245   14.71954748866679
H        10.08090386891456   11.43762584671591   14.60125085276980
C         9.22315329334273    9.92770977122118   15.85328141205224
H         9.98406224902273   10.01862455074799   16.61459327007420
C         8.18323759655387    9.02637204270872   16.02279584360221
H         8.13397191167708    8.42216163399174   16.91720075499848
C         7.20398203697152    8.90412018048513   15.05381761342182
H         6.37556324033813    8.22257497776688   15.19377787120346
C         4.48638081352843    9.78427079435306   13.53861451187203
C         3.34714534354606    9.03580007195191   13.26941333299804
H         3.38178976962550    8.24058910027651   12.53838347180828
C         2.16348065474092    9.31835102803222   13.92828109316564
H         1.27852437789780    8.73830897340345   13.70994257350796
C         2.10539281447137   10.34847699143281   14.85081254307807
H         1.17470204126329   10.57777584005961   15.34856211696085
C         3.24025463330159   11.09433881529514   15.12580988236695
H         3.19544609209211   11.90344193417618   15.84014907354907
C         4.42481609186692   10.81724574272181   14.47199150188414
H         5.30720226528164   11.41488743606789   14.66252233986652
C         5.96192673046846    7.91832493633118   11.94849539494924
C         6.64137507255921    6.82669545927117   12.46892619808886
H         7.26778595191351    6.93977524986509   13.34209393105112
C         6.52763218690296    5.59120676293927   11.85249935888976
H         7.05805999140290    4.74078149866097   12.25625041393216
C         5.74329841834320    5.44307616499729   10.72140025343866
H         5.65952539396948    4.47596666569646   10.24736012791949
C         5.07697611915755    6.53670754360272   10.18829883094019
H         4.47668286394485    6.42159161167198    9.29742442835883
C         5.19271162343656    7.77308616896805   10.79308762609033
H         4.69660793764725    8.65073014887281   10.38443740599700

