57
CSD_code = DEMSAQ | q = 0 | S = 0 | Stoichiometry = C18H30BMoN2O4P | MND = 9
Mo        2.76916919470507    3.10777833419902   -0.75546245739362
P         1.11042219997471    5.14501649843575    1.85059277794249
O         0.05208451149359    4.46911887088307   -1.22007323405604
O         0.67820168454657    0.85639588092128   -0.62774695502443
O         2.52336232554338    2.39686294916325    2.23004250153947
O         0.20984212316876    6.21761841731910    1.09036094674210
N         1.32076024071503    5.80466433680980    3.40712509956059
N         0.00755441791347    4.04803607694562    2.50955309284090
C         3.61121865130671    2.98181312901961   -2.87252882061541
C         4.25677381025762    1.97036909469721   -2.09213893374988
C         5.01045334128795    2.60979044450748   -1.07354473635860
C         4.85690328071362    4.01919843265639   -1.23216142569941
C         3.98775873198359    4.24550428985625   -2.33934273787050
C         2.91075026849692    2.75133288714325   -4.18109935969275
C         4.29517029873286    0.50897578976043   -2.43023792412053
C         6.01017389715705    1.94448094900493   -0.17121336023956
C         5.73315514549422    5.05358466200225   -0.58939986850883
C         3.74067067349160    5.57761074310976   -2.98509328408739
C         1.07801810776127    3.98430562235305   -1.00211620526058
C         1.47936932616806    1.68429676103843   -0.70208044123904
C         2.60838848774544    2.70342149828314    1.11160119096333
C         1.35617787695024    4.72053526024177    4.37279582204428
C         0.34983795466405    3.67841443285341    3.87288860908184
C         2.34567792905774    6.81103173462966    3.57011679809519
C        -0.65682516879185    3.02244392317959    1.73943792430436
C        -1.02197194537047    6.69058964611816    1.62754087904514
B         2.70117741343554    4.93561818271843    0.79483565408283
H         3.63863739341313    2.72618272548149   -4.99687002606585
H         2.19520156348457    3.54541728370478   -4.38960401847337
H         2.37242296840388    1.80430358080415   -4.17831149471185
H         3.36003459258149    0.18522662699030   -2.88557563075927
H         5.10415404525071    0.31228846472712   -3.13858975721407
H         4.46670603138399   -0.09735828337904   -1.54200658118778
H         5.71444078763074    0.92212601752633    0.05954441086262
H         6.98965049189279    1.91358752410797   -0.65662102300479
H         6.11532206401835    2.48641427567254    0.76787124464176
H         6.65551687794341    5.15688854081399   -1.16819602884336
H         5.24366635872751    6.02425330770644   -0.55239815683239
H         6.00253942313229    4.77132178010319    0.42679533166330
H         2.81033590241566    5.57444778932969   -3.55103806090473
H         4.55696693096254    5.81623820107934   -3.67233396035918
H         3.68150342425677    6.37091052019009   -2.24117183170240
H         2.35948575075172    4.27967201869880    4.44377491418348
H         1.08244856846970    5.10897297279751    5.35869002737120
H         0.77875478001425    2.67157402670672    3.91934560132042
H        -0.56850319209591    3.69017946052184    4.47142069879627
H         2.13551293510713    7.39504020598552    4.46887180924417
H         2.31846126600050    7.46809667644660    2.70130187257099
H         3.35073519901264    6.38344252494212    3.65600284740243
H        -0.84935191228540    3.39682133828935    0.73593781249411
H        -1.61377687387417    2.79528476699412    2.21653597645127
H        -0.07680574343663    2.09526902387321    1.67134777660816
H        -1.84553341013580    6.27541584261108    1.04602551850630
H        -1.02597646963702    7.77734378776888    1.54328055679572
H        -1.12216121578271    6.39805171963878    2.67350922790138
H         2.71004145084003    5.90601359481033    0.11387537870393
H         3.59279523291776    4.90556483724247    1.58213401221190

