24
CSD_code = DEMTOF | q = 0 | S = 0 | Stoichiometry = C8H6NiOS8 | MND = 4
Ni        2.66525559519611    6.09102892160224    0.95478171611329
S         2.79062409711744    5.76168967383789    5.66955651595253
S        -0.10281419938398    4.16698198103763    4.27075833668176
S         3.49302150110644    6.26105425539458    2.91917864380034
S         0.93624875015249    5.12299311684294    1.75868889214714
S         4.45833620533479    7.03975127965764    0.17505901047683
S         1.76000999390807    5.96027773215567   -1.01643844597157
S         5.26765977829265    7.84235465887417   -2.61229633511353
S         2.69981092159965    6.86025799725581   -3.73228787415401
O         4.61340875484162    7.96995398571431   -5.15842334413948
C         1.18087407503218    5.81297616909915    6.54100597108661
C         0.69065852299033    4.42850330799469    6.93224799592236
C         0.72609113605158    3.47456353550932    5.74955812036333
C         2.32640783001541    5.59832778337473    3.98600271613177
C         1.19083706256424    5.02144838909695    3.45085425729079
C         4.12704674365050    7.13967504971202   -1.48896437663432
C         2.93654699688055    6.68036554557383   -2.00940524933336
C         4.26893737950006    7.63164265477117   -4.07190306153644
H         0.47503191333796    6.31713615993529    5.88310992165214
H         1.35557146098709    6.43146233350694    7.41974195936232
H        -0.32938184035613    4.51739278159497    7.31130901268748
H         1.31924093216881    4.01895802386855    7.72550250570223
H         1.74728999131539    3.23099373573467    5.46137655713028
H         0.18718639769505    2.55461092785388    5.96978655438084

