131
CSD_code = DENBEE | q = 0 | S = 0 | Stoichiometry = C63H64P2PtSi | MND = 4
Pt        0.55754135548683    5.89024034376112   17.80670140580460
Si       11.26473943124227   12.04129052275966   20.53208037661264
P         0.95481948366696    7.02423255207825   15.87661245449153
C         1.93920409367612    7.01883159290502   18.77152143722875
P         0.12822222687397    4.63690466441840   19.65027967030551
C         2.95503709616688    7.62394275684710   19.09230340736186
C         4.07955941701515    8.28679729140842   19.39954275342052
C         5.13927601295931    8.87044669886568   19.59669471289252
C         6.29756811320411    9.49554738306325   19.80002597438170
C         7.37467105391514   10.05911087745389   19.95764098751625
C         8.55582377564170   10.66802534981440   20.13128931532045
C         9.63647529549434   11.21646517334175   20.27918975460289
C        -0.76333487313211    4.73895936791759   16.76792104372233
C        -0.34696440659271    3.60377226226183   16.07812210340126
H         0.70796383123287    3.34590218569900   16.04433863214547
C        -1.24471972820053    2.77931410531752   15.42309562981796
H        -0.88394921057854    1.89972584573030   14.90443996375839
C        -2.60101829305265    3.06461795741992   15.42573178699723
C        -3.58578633111138    2.18261580365570   14.71454551686861
H        -4.46373976355477    2.00731739792880   15.33522925945569
H        -3.13632322784222    1.22435029683925   14.46157233317451
H        -3.92190659432886    2.65511669910943   13.79014406895642
C        -3.02978181061469    4.20232562692295   16.09560729666239
H        -4.08491043219148    4.44697085460344   16.10607281298347
C        -2.12869327362619    5.01820892943229   16.75503635903007
H        -2.50681325209472    5.89507125808369   17.27316683070874
C        -0.27498280085862    8.34951219010106   15.80126196244879
C        -0.99427718338525    8.61325101518320   16.96261365224466
H        -0.79170461397869    8.01387847954335   17.85271566697518
C        -1.95054810088776    9.60902299832827   16.97887865822823
H        -2.50864406457272    9.80757634598288   17.88304058811939
C        -2.20825721510186   10.36087062104988   15.83715519844723
C        -3.22836161501882   11.45701062740584   15.86303078768592
H        -4.05457694274235   11.20223603224719   16.52298103374190
H        -3.61728545550997   11.65202835443639   14.86650578218834
H        -2.77398205436411   12.37616468510128   16.23476853808145
C        -1.48995959613325   10.08665297789631   14.67782216178683
H        -1.68708512204031   10.66051521599143   13.78303928439146
C        -0.53292726764743    9.09011397515899   14.65277213415754
H         0.00944565219968    8.87584530985537   13.74139447754736
C         2.57268779461305    7.84569340750773   15.77844547127126
C         3.68074919467997    7.06054065158891   16.09366385814839
H         3.53174032420321    6.01295432521370   16.33125058442436
C         4.94199877315091    7.61451494292871   16.13582634418677
H         5.79396313214942    7.00050562844239   16.39074404800864
C         6.49131267061853    9.57866810401877   15.98867155876617
H         6.53590470981598   10.53436581482729   15.47235308437581
H         7.24620641726133    8.91400905544330   15.57364445512460
H         6.73641609680674    9.74642228881377   17.03796238802371
C         5.12812833217541    8.97090576701292   15.88309542059146
C         4.01948422911137    9.74734529602648   15.57318371905700
H         4.14767271591292   10.80366967123633   15.38278918260263
C         2.75077904499640    9.19698324178927   15.52173243726336
H         1.89976604890279    9.82445534065394   15.29766545493585
C         0.77394015792165    6.20447720986654   14.26467619090342
C        -0.51030816274520    5.89479990600715   13.82028099927920
H        -1.36671415545050    6.21238931375853   14.39824495294300
C        -0.68922839232516    5.18061129046176   12.65536687509480
H        -1.68934379604857    4.94097415222822   12.32352790658459
C         0.40244988611032    4.75183759241509   11.90532079002037
C         0.18844239171778    3.96172915452527   10.65107944062571
H         1.13498918065766    3.71498629634267   10.17690150456955
H        -0.41906034631128    4.52669241124020    9.94500812724367
H        -0.34051062925022    3.03642752122031   10.87652034789637
C         1.67843280662491    5.06994991180285   12.34945141742229
H         2.53827094964062    4.74984562070612   11.77740020403750
C         1.86791614034249    5.78437752474538   13.51912811104406
H         2.86998329344149    6.02007682522033   13.85012232069337
C         1.72365643310059    3.90884952387936   20.12050088307505
C         2.66569655833755    3.79532603023659   19.10047471467860
H         2.39858686761173    4.14108463717948   18.10076205946343
C         3.91307714987312    3.26691422618579   19.35814431758284
H         4.64145408581642    3.18488491314307   18.56378980671662
C         4.25065115335778    2.84589686521414   20.64138502537462
C         5.61850899707732    2.30665891405791   20.92508736319767
H         5.96851306590999    1.68593091343759   20.10287363539422
H         5.62572284146203    1.72001072607811   21.84044814283117
H         6.32187871087503    3.13132175720403   21.04395379447394
C         3.30594091500767    2.96385728825693   21.65348662916304
H         3.55832193730549    2.64484363860026   22.65507224742965
C         2.05133223421072    3.48954151490943   21.40209511057104
H         1.33333022688767    3.58414210698465   22.20443931825854
C        -0.95082402814919    3.19340251251338   19.42354748040652
C        -2.32983141309710    3.38140425797835   19.43770119562077
H        -2.73106388919746    4.34810877597335   19.71273523588421
C        -3.17758035273461    2.34678369545183   19.10003517470900
H        -4.24673862403797    2.50530639975748   19.11142813097789
C        -2.67251338058434    1.10707703560616   18.72550043706857
C        -3.58903183068390    0.00058806325123   18.30385992755699
H        -3.19608328860382   -0.96786563443529   18.60599897296966
H        -3.68378295496354    0.00064891552937   17.21761473848598
H        -4.58096840150553    0.13014104834107   18.73034478798895
C        -1.29502631488639    0.92458395293413   18.71741385934045
H        -0.88805813985954   -0.03471861532227   18.42972759932457
C        -0.43942485378749    1.95484750049036   19.05562723547455
H         0.63084349758471    1.80098624577450   19.03167626234641
C        -0.50115914676798    5.39489661349540   21.17414042689541
C        -0.35783977643300    6.76838948069289   21.34120788055040
H         0.11097897584592    7.34814694423170   20.55491408155049
C        -0.79967752827772    7.37817598232797   22.49818244063899
H        -0.68436796831935    8.44564837099443   22.62147921759038
C        -1.39455050698795    6.63377701831596   23.51223071927076
C        -1.86191896568925    7.30697004521422   24.76561165858953
H        -2.40037465369709    6.61305090004790   25.40608420360668
H        -2.51556767414410    8.14469915296605   24.52761077124018
H        -1.00956512598055    7.69944714241250   25.31971330646765
C        -1.53901903992087    5.26262887471471   23.33609653805570
H        -2.00231044747826    4.67115418751864   24.11359623820223
C        -1.10039189015189    4.64401719769356   22.18038513758670
H        -1.23196720250549    3.57772883636442   22.05262200890467
C        12.61362493735527   10.91848995744335   19.76255761742384
H        12.56957566463828    9.93130810988837   20.22500060945480
H        12.39734106947729   10.76617998349339   18.70405209918567
C        14.02640000599601   11.47477850488790   19.90789896529180
H        14.75662183388215   10.80338643486758   19.45663017224314
H        14.28662620270436   11.59864932903168   20.95712404328917
H        14.11246003054802   12.44315656073643   19.41916630110383
C        11.55940475157539   12.27428699897395   22.40696355519616
H        12.49410802920907   12.81054772591271   22.57981025682064
H        10.76617763986691   12.89796331927257   22.82163895415894
C        11.59466947937253   10.95348106328313   23.16482188178932
H        11.73304860253124   11.11737086066993   24.23295679204036
H        12.41030741297176   10.32774492612722   22.80973498999337
H        10.66430188407739   10.40932307172004   23.01982467478341
C        11.23732559483366   13.75319818762327   19.68023435399737
H        10.44042799723272   14.35894829710722   20.11397867858942
H        12.16926252438730   14.28692254104626   19.87442535421918
C        11.02121845108761   13.65874313501033   18.17541927887169
H        10.98049538195235   14.64846956093373   17.72183629203732
H        10.08779756541701   13.14431162273526   17.95885950914190
H        11.82946627299327   13.10366096732388   17.70482389320569

