51
CSD_code = DENMUE | q = 0 | S = 0 | Stoichiometry = C28H20MoO2 | MND = 10
Mo        3.08154370847975   11.85972801766839    5.79208383071843
O         1.55481486911510   14.00531626666649    7.39670787742273
O         0.23137937565716   10.70708751042657    6.04546249413504
C         5.05249602869636   11.98132289857748    6.98433121000104
H         5.38283805924590   12.76456117725730    7.65517806452969
C         5.40263954652398   11.84975785480157    5.63185390811562
H         6.06133018620130   12.50872940251378    5.08045351502467
C         4.93903318044960   10.58609262550968    5.17670028341828
H         5.19209747303540   10.13182155952426    4.22689736456577
C         4.30145738211174    9.94386761534880    6.24851151615313
H         3.95626557029981    8.91796180043726    6.25879246037207
C         4.33887146909409   10.81128272518650    7.37694654884561
H         4.12933723086746   10.51920318986904    8.40118605209467
C         2.84142509680814   11.95887942207328    3.59187342807943
C         3.21132195486305   13.25872483239744    4.15530307684837
C         1.83780891904994   12.79648877998610    4.13401316963489
C         2.12586320744541   13.22704029416432    6.77419859390301
C         1.30682186823556   11.10277414252885    5.94822636139918
C         4.22504482392602   11.31373355690530    1.65843695499164
C         4.46832757742447   10.49244709426877    0.57483816426162
C         3.60020448389892    9.45483348364445    0.27456779011966
C         2.48329400005578    9.23879607604153    1.06734633111875
C         2.22916666613537   10.05743061264729    2.14917579719351
C         3.09274139848217   11.11349981325930    2.45459669493254
C         3.72677721604679   14.84997178674314    2.33635965830848
C         4.30267473561711   16.02429181108090    1.89150731398394
C         4.97659891452540   16.85291415237196    2.77432480257558
C         5.06732002990076   16.50375402385450    4.11160394879882
C         4.49484472806267   15.32980830111072    4.56376769183287
C         3.82187849701145   14.48736533926760    3.68121872312277
C        -0.50641281879441   12.55787769840194    3.37651504128953
C        -1.75764261485923   13.10456154600950    3.16676170325276
C        -2.00063525209195   14.43236199533409    3.47908317257282
C        -0.98499704790317   15.21787504747460    4.00217138084399
C         0.26856696516895   14.68073401613355    4.21647791894125
C         0.52292368990710   13.34218723406361    3.90195471863630
H         4.90242516762945   12.12294754936781    1.89485129221294
H         5.34220371857838   10.65952078056061   -0.03808794713190
H         3.79569458900246    8.81339156431985   -0.57169057649249
H         1.80954778645050    8.42589246549730    0.83923265254545
H         1.37040608718285    9.88023161036783    2.78132098617804
H         3.19262654932638   14.20668018336569    1.65085962603983
H         4.22316360942207   16.29620100200639    0.84893916180396
H         5.42605648573166   17.76910197552674    2.42143228123416
H         5.58607724742089   17.14972154285629    4.80495018061952
H         4.55784548752950   15.05553600958154    5.60855852221360
H        -0.31688987336721   11.52187029330127    3.13816879892556
H        -2.54932165266038   12.49179341533095    2.76147655800670
H        -2.98140106262931   14.85434705340587    3.31775415928308
H        -1.17443455341468   16.25243005949282    4.24714266669584
H         1.06497929509964   15.28555079147126    4.62756407582772

