54
CSD_code = DENMUF | q = 0 | S = 0 | Stoichiometry = C19H29Cl2N2PTi | MND = 8
Ti       -1.08558876186067    9.81606168040673    9.81578877909854
Cl       -1.44792948120756    8.30438394058852   11.36045241512167
Cl       -1.94559854094859   11.53158574453070   10.89047561318017
P         1.98463452091310   10.08756055480635   10.71645100338071
N         0.62794601713667   10.19217556127551    9.95233480105373
N         4.16698183353300    9.78427621815941    7.86843777372527
C        -2.77348954832836   10.27559641834984    8.22174935493586
H        -3.52515462946725   11.05096465132888    8.30128784603226
C        -1.49900600096866   10.42399897827123    7.62808395115108
H        -1.13671198634328   11.31684639334172    7.13169393488265
C        -0.87624087747227    9.15193189433365    7.61582391054033
H         0.04984463396742    8.90063102205792    7.11393836403756
C        -1.75731950596568    8.23602490425000    8.23226761881682
H        -1.61147951870099    7.16381150914525    8.30211516690120
C        -2.92736058316781    8.93444305631859    8.60083979061598
H        -3.81837406147663    8.49116993183018    9.02751467549783
C         4.11648422058688    9.38485411892427    6.60859256102038
H         4.92019520210285    8.72927964966184    6.29920658171888
C         3.11586484740894    9.76236663086562    5.72892392038047
H         3.11644788748642    9.40943396910220    4.70969877406176
C         2.11854317424684   10.60619327561774    6.19816945378766
H         1.32001678395065   10.92606447301802    5.54369269425962
C         2.16614577042526   11.03411438294485    7.51298853212573
H         1.41328046922523   11.69201733196313    7.92492065033247
C         3.21498986146937   10.59366516809877    8.32075043789923
C         3.29170827942568   11.01333150292417    9.74594250441649
H         3.02199093518425   12.06676860732912    9.82519924913041
H         4.28828628753845   10.84403545924473   10.14574788185753
C         2.01264187553055    7.60687514871793    9.58790883504969
H         2.32140499235306    6.56300219809751    9.55949520436072
H         2.35168357395830    8.09093327690592    8.67388636348311
H         0.91806304691554    7.65440039574527    9.62776229948709
C         4.12662144606667    8.21221177476662   10.78816012715861
H         4.43043865022983    7.17289598148383   10.90948788464254
H         4.57180705891158    8.78730625727171   11.59654124941535
H         4.51462989914992    8.56949279982634    9.83695178385135
C         2.05585083374931    7.59757129342333   12.06379042043528
H         2.26063700084575    6.52901848958000   11.99907107529269
H         0.97635028725219    7.73150754259740   12.12725000246254
H         2.52714890810953    7.96923938915317   12.97032289151250
C         2.60325276175262    8.29192146785111   10.82011855081746
C         3.25493596758191   10.97953908613828   13.12478132919276
H         3.17675856793416   11.59116371808301   14.02303275174648
H         4.06415038978013   11.37713808284472   12.51596776435864
H         3.51084674418914    9.96835466506116   13.43039613795259
C         0.79544233001895   10.44318649527652   13.22203031454728
H         0.57867538553868   11.11942667308977   14.04840036624093
H         1.04214585006405    9.47328216691405   13.64174403769066
H        -0.10937051901367   10.34668434501345   12.61434946861631
C         1.55518693290036   12.45450280519373   12.00862264698318
H         1.23551473150269   12.99039545997553   12.90088635504816
H         0.72170761426165   12.44848682569360   11.30076505285669
H         2.39366953683976   13.00050373350269   11.58135635131018
C         1.92899890486970   11.01547289910242   12.37423249551939

