63
CSD_code = DENNAM | q = 0 | S = 0 | Stoichiometry = C22H35Cl2N2PTi | MND = 8
Ti        0.57591846256240    4.43912017884339   15.58317364188155
Cl        1.23734363980180    5.81610256703105   14.00952643804490
Cl        1.39362058983250    5.57238021367552   17.27630547791272
P         3.05473085708411    2.72141764280039   14.87975258109087
N         1.64561881056098    3.00916648087825   15.48209502950124
N         5.68841771831417    0.71278960902056   15.14999731221852
C        -1.60503880074935    5.23555288200427   15.29547340385108
C        -1.46795632699535    4.79021416277398   16.63048327101328
C        -1.15805794937002    3.39996668600650   16.59693081261969
C        -1.16253369856759    2.97700890959836   15.23501990351906
C        -1.41325148754999    4.12140083551344   14.42919846221610
C        -1.99605832379966    6.61384557818674   14.85081625674276
H        -3.08142946984581    6.68235523502123   14.73797178065741
H        -1.53937998680214    6.85571775391740   13.89068094628529
H        -1.68460567760158    7.36374767044180   15.57821157320527
C        -1.74842709950761    5.59457509150504   17.86466345900572
H        -2.81475945610497    5.54885014644394   18.10175910793193
H        -1.47673382158716    6.64084242913565   17.72673847725225
H        -1.19255197175369    5.21007669276238   18.71893734498380
C        -0.97924431490898    2.50403030156611   17.78836951711114
H        -1.94761717948115    2.16165136135929   18.16305266521361
H        -0.46948185228771    3.03352171349055   18.59510520860583
H        -0.38265444971285    1.63226940052154   17.51990211189796
C        -1.05444082730564    1.54523982846805   14.79349082099670
H        -1.83055576368838    0.94862071760414   15.27649260429502
H        -0.08090601528155    1.13236900317159   15.06786923187582
H        -1.17564234886930    1.45630835813393   13.71581979279373
C        -1.61367420583831    4.16933325974523   12.94119538874715
H        -2.63091910336884    4.49526803873819   12.71364686557088
H        -1.46016860642205    3.19124322283911   12.48869091629829
H        -0.92175519054215    4.87538020427482   12.47606659084378
C         6.85588482303034    0.23725673873904   14.75632683720147
H         7.71410792073646    0.60784360347978   15.30241862518925
C         7.00228568135460   -0.67398499947152   13.72323367862699
H         7.97739803074790   -1.03572920158980   13.43830287827540
C         5.85584237944081   -1.10728337297481   13.07376853681504
H         5.91714564549555   -1.82196875332176   12.26554013307726
C         4.63033186996143   -0.61078845223283   13.47917349594159
H         3.71833638371084   -0.92888152016944   12.99535046964779
C         4.58619867972225    0.31012147114713   14.52690072680295
C         3.30109484202759    0.87583397982615   15.00979819286353
H         3.18515353367568    0.69784979839864   16.08301965779019
H         2.44598866105648    0.42828246005003   14.49698580032918
C         1.97490835567816    2.63817394251335   12.36317055963758
H         1.90393881775633    3.04311259373685   11.35519726690596
H         1.08543912756884    2.93496909512237   12.92790270268043
H         2.01072092476867    1.55114983785967   12.29635416040600
C         4.50713494059040    2.75340350784294   12.40613865187292
H         4.58966058094132    3.22801799784773   11.42909726857270
H         4.53592461620901    1.67616146147920   12.26171339283449
H         5.37121810254653    3.04204668608912   12.99992561763959
C         3.20857510084220    3.18158608583391   13.07464468500940
H         3.14026391902879    4.27729846110201   13.07523443573219
C         4.53449320101655    4.99176782258444   15.47824725071175
H         5.26796745201383    5.47928428161265   16.11917773631096
H         3.55659689096791    5.43986211332484   15.67740364897777
H         4.80433769489366    5.18877599615251   14.44210687442934
C         4.26986211792929    3.22951871022889   17.25774558960443
H         4.99696679000161    3.77402743955082   17.85737516720304
H         4.37473666564642    2.16803019241152   17.47370425256737
H         3.26605997125468    3.55670345536644   17.54235451556547
C         4.49439056304544    3.49769447323101   15.77458128956946
H         5.41822956618813    3.01049791875441   15.45106890702890

