70
CSD_code = DENPAO | q = 0 | S = 0 | Stoichiometry = C33H30MoO4P2 | MND = 6
Mo        5.34930850129601    4.36020249869443   11.97972728585454
P         3.48488017386464    2.80793635945912   12.14225540320750
P         6.04125986545947    2.32281505674509   13.06557677444154
C         4.64029482901713    5.00106681491131   13.68499839734111
C         6.16121384220407    3.71456737587822   10.31904216038207
C         6.93929534292631    5.45335395669302   12.19248697570178
C         4.46383844325959    5.83519116885105   11.06940913740527
C         4.31874514047606    1.72311123190283   13.40705883282592
H         4.12910232969968    0.64862709743287   13.33853849477889
H         4.09269064566220    2.07704324746092   14.42103031024646
O         4.24378164240472    5.38261834569088   14.68701205965897
O         6.73258063797866    3.35203582496362    9.39799843562762
O         7.87869472775753    6.08977970130014   12.34055372654676
O         3.93023364171428    6.70465807615389   10.55345998621934
C         2.91821787422039    1.57215317179383   10.92198757264632
C         3.52356841052248    1.64649194382285    9.67039543748772
H         4.23713759410189    2.43966819166540    9.48569640264626
C         3.22870705690526    0.73392255793082    8.67695077933146
H         3.71308521461033    0.80393533918044    7.71492906567870
C         2.30832804107590   -0.26852110216359    8.93148394708858
H         2.06746803824716   -0.99361383305064    8.16824016045057
C         1.69020963142091   -0.33876610051630   10.16710454328273
H         0.96550306647026   -1.11841948437000   10.35675518597286
C         1.97467649497356    0.57087760652234   11.17919065120823
C         1.24121795595673    0.46403986286306   12.48047583109674
H         1.84336721592659    0.81345360949002   13.31479001503529
H         0.33881986348730    1.07634111753788   12.44621394848596
H         0.94118654062607   -0.56574353045508   12.66588434651460
C         1.93854610878141    3.44272653153346   12.86543482352684
C         1.68018158857936    3.41617901655089   14.23327748282366
H         2.36651069184835    2.93421274052267   14.91618531892346
C         0.54452877875692    4.00877010944042   14.75160702204960
H         0.36139802616533    3.97901636995364   15.81544254277381
C        -0.34708920192592    4.64481620246202   13.90592209227776
H        -1.23566384283610    5.11105340856117   14.30456425545857
C        -0.08787738460526    4.69403873713837   12.54838018673595
H        -0.77585807754992    5.20503462393112   11.88979682680494
C         1.05035606878794    4.10919942140802   12.01041959385454
C         1.31174429376744    4.19450157793845   10.54066794786307
H         0.80620046894840    5.05690105455421   10.11145908912984
H         2.38364930453598    4.28632578968994   10.34883059766118
H         0.95028915469053    3.29914394956400   10.03192463782364
C         6.80505512687192    1.07111512922808   11.99211823558892
C         6.04020968785923    0.13191695154831   11.30409720431521
H         4.97671236374297    0.05428408572718   11.47867812750968
C         6.62288722407552   -0.70893138776736   10.37496993667038
H         6.01197286507806   -1.42642143136646    9.84712127278520
C         7.98005957320218   -0.61884992709339   10.12098918934309
H         8.44118415675707   -1.27154133527250    9.39489105847222
C         8.74339256208904    0.32225980483195   10.78903765864928
H         9.79983679514383    0.40297438413230   10.57623625393527
C         8.17535871379290    1.18222672633815   11.71797240260583
C         9.00845234659192    2.21506384241982   12.40540809548282
H         8.45849098752375    3.15828091126336   12.47218780180344
H         9.25951018426988    1.89697313609654   13.41847142871373
H         9.93441954177986    2.38858365440709   11.86173151789309
C         6.83814477768440    2.18691792449960   14.70016137022655
C         7.29851225539392    3.39642890495926   15.21686312324882
H         7.19169913780510    4.29366811216121   14.61768832445318
C         7.88567332679653    3.46001104052313   16.46531793899713
H         8.23735339135098    4.40434381174265   16.85208102047648
C         8.01847501425715    2.30126338887854   17.21178831314365
H         8.47754269449538    2.33335104478759   18.18874115988790
C         7.56091975605385    1.09804326885180   16.70541630479017
H         7.66530900096584    0.19676118488868   17.29340598225692
C         6.96348529835434    1.01511181344524   15.45324154847397
C         6.45690067503759   -0.30778074404609   14.96859854217643
H         6.44454637471918   -0.34884572283515   13.88194505113293
H         7.08464900252609   -1.11483012008904   15.34152556669054
H         5.44441842555253   -0.47822409189779   15.33795728539494

