73
CSD_code = DENPOC | q = 0 | S = 0 | Stoichiometry = C34H32CrO4P2 | MND = 6
Cr        0.69540343508670    4.93742182269097    3.05422128259222
P        -0.89050234262858    6.34273894375002    1.94544874885760
O        -0.68211549911957    4.93734414277981    5.71880959497880
O         2.41275957670409    4.93773337029653    0.57759933020429
O         2.53848156049367    6.78857832352347    4.51041002014440
C        -0.24409983781577    4.93734733528164    4.64667765812123
C         1.72440641805639    4.93752780580008    1.50330187449341
C         1.80212196589043    6.14133534639017    3.89152236033968
C        -2.11199952940650    4.93740758566192    1.61753299047080
H        -2.57905543533242    4.93746385844358    0.62921592202997
C        -3.17923519274088    4.93742598867337    2.70875550959142
H        -3.81388366183450    5.82053958410161    2.63784127057392
H        -2.70995348681718    4.93735631521317    3.69532911488633
C        -1.87457608506755    7.66555548476191    2.75786411908544
C        -1.45395400989081    7.97155340433221    4.05095730579152
H        -0.62028615947284    7.42239427523327    4.47124085474957
C        -2.07035321566203    8.96226623667043    4.79037867467743
H        -1.73155089152779    9.18121342586098    5.79136665378117
C        -3.12164599247701    9.66925939139329    4.23284676609291
H        -3.61542223429476   10.44721009982134    4.79579533193027
C        -3.53921318327854    9.37839784690196    2.94677811005273
H        -4.35831466433877    9.93576880127448    2.51406659004566
C        -2.93178431814373    8.38457562656752    2.18845612600452
C        -3.42013796149253    8.13520327269656    0.79554434962123
H        -4.45742833492910    8.44842488665079    0.69343332559613
H        -2.82294257394088    8.70540633426060    0.08286454293939
H        -3.34327118401036    7.08442547212263    0.53235259317229
C        -0.48349574429673    7.15054963627146    0.35166885701918
C        -0.95214474879993    6.72207010911442   -0.88577494887795
H        -1.67756208675034    5.92787473884499   -0.95049259132510
C        -0.52402372126850    7.30993678174775   -2.06060942831281
H        -0.90383782782364    6.95597524891620   -3.00767516721986
C         0.39041563997682    8.34636746492910   -2.01544421367262
H         0.73633186708620    8.80851090771111   -2.92780664976289
C         0.85892019441163    8.78774200468797   -0.79152418088841
H         1.57133011045946    9.59950862228924   -0.75458712307265
C         0.44068611122429    8.20672768110565    0.39790914753228
C         0.96162063580804    8.72719218524711    1.69759410739226
H         0.21817396441079    9.36606850663934    2.17694628149758
H         1.18971621843723    7.90303234823344    2.37804597834378
H         1.86441112479497    9.31366692069008    1.54271289820521
P        -0.89042489067900    3.53211757800754    1.94537331520697
O         2.53772133137114    3.08614914240400    4.51120000153894
C         1.80186441769282    3.73342120389302    3.89176860305333
H        -3.81392579787930    4.05435654374857    2.63775134285933
C        -1.87450316409377    2.20924774417313    2.75767794152550
C        -1.45389492470552    1.90316446290207    4.05075522877214
H        -0.62003935720038    2.45209024619075    4.47097374093627
C        -2.07058952806671    0.91269381609530    4.79026291147344
H        -1.73164659851615    0.69351712173110    5.79114950999070
C        -3.12227615150999    0.20615476463953    4.23289813230674
H        -3.61622352163365   -0.57165692871143    4.79588114628685
C        -3.53978994941531    0.49705183599604    2.94681462759563
H        -4.35914418711771   -0.06002758124406    2.51420221274454
C        -2.93196400490360    1.49052336523197    2.18835266272467
C        -3.42022467136349    1.73991822038923    0.79542099143678
H        -4.45751162182752    1.42672762199809    0.69318120110964
H        -2.82294878941455    1.16964970463839    0.08286788634079
H        -3.34327413912453    2.79067677285618    0.53217658403336
C        -0.48337528685367    2.72432468036646    0.35158588964296
C        -0.95227872939966    3.15255424991723   -0.88584964059287
H        -1.67790079781639    3.94656952637156   -0.95056738793025
C        -0.52414953064940    2.56466887002697   -2.06066969183263
H        -0.90417537746546    2.91842284217219   -3.00772923706721
C         0.39058029402941    1.52849438441159   -2.01550323523163
H         0.73645518196925    1.06629169794506   -2.92785198331447
C         0.85934219876129    1.08737397165623   -0.79159236152350
H         1.57194149927698    0.27577088675382   -0.75464124943034
C         0.44107227107377    1.66838613805003    0.39782959828098
C         0.96226486963394    1.14815251259849    1.69749951521350
H         0.21910103709307    0.50896270712025    2.17686368741888
H         1.19003480781968    1.97239706028043    2.37795056209728
H         1.86529421121732    0.56205669981118    1.54259350662180

