97
CSD_code = DENRET | q = 0 | S = 0 | Stoichiometry = C46H41F3O4P2Ru | MND = 6
Ru        1.11517502577814    2.47760763920547    4.99603809527874
C        -0.37595190994373    3.45412795807583    5.39117708724590
O        -1.31252142776563    4.04550916897926    5.72418227051323
C         1.20493008861289    2.95563835308525    3.06005964212355
O         2.00740247950361    2.26972407132053    2.47551650067600
C         0.40653555612025    4.01010401957086    2.41405066254770
H        -0.27647581153943    4.56847161373895    3.03688654262252
C         0.53511458896743    4.24119299996892    1.10820581479402
H         1.24814311579612    3.63398963104589    0.56176074775334
C        -0.19276969166247    5.25552617987593    0.27839658935072
C         0.84681967460597    6.24503482612784   -0.26623972834372
H         0.36379782123653    6.98731444311457   -0.89781746138133
H         1.59887405096571    5.72646229406244   -0.85606701807572
H         1.34504820749874    6.75442006474744    0.55579248493558
C        -1.25043065218077    6.01396280707673    1.07770152182332
H        -1.76552094562099    6.72244805871349    0.43260944101992
H        -0.78880135097703    6.56391607904922    1.89341519119422
H        -1.98466448058494    5.32641813641752    1.48962025809531
C        -0.85867338401154    4.51633532163550   -0.88996089241136
H        -1.38761570645645    5.22025672047432   -1.52862968519718
H        -1.56785969388991    3.78223298223669   -0.51488231250953
H        -0.11536757969947    3.99711061488567   -1.49022320395178
C         2.77429334033651    0.88793090375230    6.19707694892076
O         1.88100356482211    1.26135275035009    6.96460404031611
O         2.89336105235525    1.19576717657968    5.00637330609373
C         3.86503946058442   -0.05142583580976    6.78422505260970
F         4.60945612520364    0.57739250875071    7.71137421264873
F         4.71192965954732   -0.50346946075125    5.85142292131406
F         3.33415477117557   -1.12883011595618    7.38410944045787
P        -0.08718497619897    0.57357899687656    4.47919427905096
C        -0.93926446993634    0.60523222886100    2.86929540759332
C        -1.79463607649602    1.68574560971139    2.66397182772705
H        -1.90627775218311    2.42143536571566    3.45167787417917
C        -2.49015659988605    1.80818253985192    1.47776449196444
H        -3.16062610521084    2.64212860883608    1.32857101115014
C        -2.32700470591551    0.85926422888897    0.47982492807368
H        -2.86208884175547    0.95757911032118   -0.45338360466653
C        -1.47984269939255   -0.21645324018277    0.68096943472925
H        -1.35607708159148   -0.95863466254031   -0.09418550968625
C        -0.78953223308444   -0.35109147804573    1.87420252732960
H        -0.13671346543405   -1.19865421175204    2.02769360469535
C        -1.45391873127069    0.15265506075662    5.60169223236179
C        -2.49538064631326   -0.67927321017772    5.20177465771167
H        -2.50664946889421   -1.08019331281709    4.19735126197458
C        -3.50968601094872   -0.98485184341514    6.09008972011675
H        -4.31931531372510   -1.62936252253235    5.77983319228534
C        -3.48932664655368   -0.46662596092867    7.37580968306785
H        -4.28508685242550   -0.70762175313663    8.06522711303576
C        -2.45120812720329    0.35779393215321    7.77765699474011
H        -2.43515396932692    0.75835487672201    8.78041644300253
C        -1.43463252743266    0.66950911484663    6.89276675349665
H        -0.61077418344111    1.30465003325153    7.19705147356084
C         0.91927365883346   -0.93594312563524    4.44062909275932
C         0.78037932989136   -1.94758374628063    5.38453008034957
H        -0.00276844139280   -1.89205352507568    6.12819142193259
C         1.65716895173465   -3.01889941744047    5.37534737401330
H         1.55186434763009   -3.80083076099162    6.11257980282722
C         2.67659928776023   -3.07738454977068    4.44032707580113
H         3.36617683890846   -3.90848661943456    4.44707091428674
C         2.82653942794609   -2.06164667479663    3.50799589058653
H         3.63452204662765   -2.09830816898400    2.79259981069037
C         1.95650566129380   -0.98874062698890    3.50735839378587
H         2.08723076696105   -0.17181150884069    2.80840015503500
P         2.54198487978389    4.20800348797740    5.53850375833735
C         2.51470975166851    5.67597582569175    4.45695663448032
C         3.56443718597096    6.07651296959862    3.64202459822273
H         4.48944792800093    5.51821858750948    3.63221252026890
C         3.42927592630100    7.20228466488106    2.84628584242474
H         4.24802053553916    7.50948875819440    2.21196948634761
C         2.25641081584930    7.93669330595720    2.86624225743313
H         2.15995616929688    8.81889852470427    2.25019595483270
C         1.20723706123675    7.54304624323898    3.68378669733092
H         0.29501062386042    8.12152652991299    3.70892006918154
C         1.33226227304958    6.41405673143830    4.46829557244440
H         0.51999514671076    6.09396128402422    5.10931555860235
C         2.28009070895154    4.99102527415702    7.15902689792536
C         1.48085071033184    4.34778305431597    8.09696916123946
H         1.03630293282993    3.39104946132174    7.84891971115616
C         1.27133890982192    4.92312244857138    9.33809897377130
H         0.65088900771722    4.42223653849243   10.06628122894056
C         1.85677146843852    6.14014133618567    9.64442485965287
H         1.69179960826448    6.59050555442835   10.61217238843828
C         2.65660475273271    6.78312197283479    8.71158756225151
H         3.11445034610341    7.73116413654050    8.95379746798770
C         2.87031148159186    6.21351725843161    7.47079259325165
H         3.49244563572653    6.71029249537937    6.73832142251834
C         4.28427934308348    3.69605211649839    5.57448263493959
C         4.80202865340688    3.12998908389352    4.40781388808574
H         4.18060998468991    3.06344794046312    3.52276470130959
C         6.08549637441168    2.61970240201040    4.40115140758506
H         6.48155745588987    2.17416488497173    3.50072202476574
C         6.85349135137763    2.65683824419591    5.55523781320490
H         7.85136704994279    2.24385638059750    5.55199713496106
C         6.33561981419395    3.20201048504468    6.71747019138350
H         6.92568305832429    3.21237195726868    7.62177441915356
C         5.05050010893636    3.71679979219409    6.73427471963064
H         4.64098260562366    4.12105957173156    7.64963556797722

