33
CSD_code = DENRAS | q = 0 | S = 0 | Stoichiometry = C12H8F4N2O6Zn | MND = 6
Zn       -2.35231497743354    2.09565683724835    4.14971000840444
F         0.45042864243675    5.31497165473515    1.32261694310593
F        -3.66807308929535    4.24926316648852   -0.63160491995816
N        -2.31189663790600    3.40460259712509    2.55495691391483
O        -0.68024599750218    2.90607050198851    4.56804099709205
O         0.68186391546398    4.55733323912144    3.97234597081602
O        -3.27077239591052    3.58814149181904    5.55586830730425
H        -2.57170576892360    4.18373178021987    5.84603014211532
H        -4.00387624750326    4.12006264194392    5.23253947239293
C        -0.26294879796704    3.82354844020448    3.79589139265927
C        -1.12535909002836    3.99875364493909    2.51814278326091
C        -0.73532577984220    4.72279176583438    1.39103636072972
C        -1.58385680887672    4.82228351576199    0.29758521492170
H        -1.29543213158194    5.36974051060569   -0.58621272708892
C        -2.80959882407620    4.18430022414749    0.39084133785836
C        -3.15039377919072    3.47709968704989    1.53444282293507
H        -4.09160724378144    2.95758988723446    1.63560336325766
F        -5.15690473239150   -1.11980790590860    6.97857910932571
F        -1.03650598185099   -0.05889043359557    8.93143274867665
N        -2.39247676032891    0.78668555362852    5.74498689654433
O        -4.02351600634096    1.28588393885940    3.73160433630297
O        -5.38819761611419   -0.36275204604946    4.32888861520147
O        -1.42608290180109    0.60453354960205    2.74837354802427
H        -2.11694589816150   -0.00230055380389    2.46076538295017
H        -0.68459575533814    0.08454260711778    3.07306016031062
C        -4.44217102553232    0.36968261807010    4.50447883906699
C        -3.57972071406126    0.19399487499538    5.78222194792746
C        -3.97043417664234   -0.52916910978104    6.90967619052268
C        -3.12179687560441   -0.62943823710376    8.00297457996485
H        -3.41071950897777   -1.17625225467851    8.88700701267869
C        -1.89524792576929    0.00691369942969    7.90923265258515
C        -1.55387468953688    0.71338292558506    6.76538202957754
H        -0.61199441963127    1.23164918716626    6.66400156661949

