37
CSD_code = DEPLUF | q = 0 | S = 0 | Stoichiometry = C8H20N2NiO6 | MND = 6
Ni       -1.21926018288164    2.43582340865343   -0.30017942744950
N        -0.69987131717567    3.48870375487701   -1.90113383563902
O         0.03865909933570    1.21100203595841   -0.96755557367403
O         1.10576804717275    0.62037962302951   -2.81450981818029
C        -0.48821370326571    2.44908104726460   -2.93566528105890
C         0.31183934468898    1.31550342099297   -2.22081701312007
C        -1.85661841565302    1.88191620240623   -3.31537795574248
C         0.25969874126993    2.99187257817874   -4.14536890331709
N        -1.95899574235216    1.25095394111464    1.09663764942788
O        -2.53369083392016    3.58633098956137    0.17281744632146
O        -4.20308719284912    4.03907573203211    1.54043727620333
C        -3.06816871390355    1.92780051374765    1.82787354104969
C        -3.31818217033254    3.31085983422847    1.14777286654349
C        -2.65465374069181    2.17196884489023    3.27545078686771
C        -4.34140335332243    1.09357143618009    1.74171999931787
O         0.24849814307576    3.16219670032016    1.43979535205172
O         2.32312350768825    1.74007539045269    0.47913448060815
H         0.17211643929358    3.99604267212970   -1.73822344164112
H        -1.40064189522520    4.16648454563406   -2.20679159047974
H        -1.73803322088532    0.99423764387761   -3.93132779201435
H        -2.44074981595544    2.61887728918206   -3.86470445574247
H        -2.40133308200268    1.61004406421408   -2.40158087693873
H         0.49587253927321    2.16891790197454   -4.81431606408555
H         1.19938293022623    3.44988067106874   -3.84145440951667
H        -0.34032060222396    3.72599512748954   -4.68057453680153
H        -2.26558854742927    0.34569704314651    0.73861419799315
H        -1.18182870232735    1.07875073314400    1.73779718207173
H        -3.40552400300833    2.78838523360922    3.76228299959153
H        -1.70521984511377    2.70361057585174    3.30075639251324
H        -2.56104405424160    1.23259231926435    3.81956327447367
H        -5.16447073591875    1.65951213739434    2.16980690340973
H        -4.23465154239374    0.15674187435586    2.28799719823344
H        -4.58612936398677    0.87839544537117    0.70244154341562
H         0.37572649947513    4.11239056117268    1.39928525566090
H         1.10605345262581    2.74067778669052    1.21402327334221
H         2.76839550750721    0.98190844790952    0.86106174812396
H         1.66634652544393    1.38374247265318   -0.14768839181627

