54
CSD_code = DEPLUG | q = 0 | S = 0 | Stoichiometry = C15H33NP2PdS2 | MND = 5
Pd        1.58838809657257   14.23126950950593    1.14520062930463
P         3.73175307520290   13.78628498883501   -0.90440153724321
P         2.16785657180280   11.47492612811417   -0.08123308651330
S         2.33886310913308   15.20984644048323   -0.97772320780098
S         2.15530225254409   11.95096789908555    1.85539436948791
N         3.23314082185043   12.24974543196051   -1.01786786694615
C         0.82683908059427   16.19996928003432    1.50384620249945
H         1.68552248987559   16.64410281462567    2.01018730582909
H         0.38428830521879   16.80722399783863    0.72288099312260
C         0.03839324762759   15.26915855751064    2.18840610238338
H        -0.98613907121886   15.08015016708968    1.86640336825226
C         0.67420825318979   14.39368255177914    3.07555268974941
H         0.11268254731968   13.58643353196950    3.53206142207388
H         1.53166520862903   14.74469671481181    3.65326440597127
C         4.43028430488226   14.88630348412203    1.66562941444415
H         3.74164567447899   14.24266579235922    2.24894124585867
H         3.91856249045913   15.79965992826554    1.33153788295278
H         5.24837528125685   15.17672434544060    2.32492652965650
C         4.99188788518997   14.12730939312699    0.46650853516599
H         5.72722190776714   14.77255384166227   -0.03162958232784
C         5.66645891660704   12.83079365386762    0.88474358275789
H         6.49945126725196   13.03804970087977    1.55487793100781
H         6.04386506217344   12.29616691771959    0.01492937240819
H         4.95461556046411   12.19074408783900    1.40220809339203
C         5.20875622049468   15.37669963480400   -2.67747432198840
H         5.72814934450243   15.45011996983930   -3.63161739959914
H         5.88496063832309   15.72525319940386   -1.89952373296639
H         4.34452682579165   16.03859328214629   -2.70379823215083
C         4.75340427421633   13.94319993975209   -2.44445427198141
H         5.62073751068954   13.28508189436349   -2.31692238845401
C         3.90994755708217   13.45565431787544   -3.61497181696726
H         3.02145581195577   14.07868486339420   -3.71071575436723
H         3.59524419966288   12.42784106965970   -3.45354761747312
H         4.47557748084571   13.50996833583150   -4.54352445237839
C        -0.41895475639649   10.42945489845946   -0.08452349999180
H        -0.36108636313990   10.58780628706427    0.99321716449405
H        -0.09293146758323    9.41594787476208   -0.30368973642303
H        -1.46099619319060   10.52055887490704   -0.38878741967865
C         0.42639415116681   11.47309146714769   -0.80701687860483
H         0.56408491478304   11.20786040357988   -1.86183543460975
C        -0.25418834344311   12.83526459431762   -0.72863163064392
H        -1.22010127716755   12.79164324212834   -1.23226090991405
H         0.34809238409820   13.60664514780004   -1.22596044326131
H        -0.43763317093949   13.10410055087987    0.33166833311514
C         2.64779884679495    9.23600336059246   -1.66809514247414
H         3.21276764683963    9.93014855278389   -2.28683325468979
H         1.63014107947224    9.17808462180380   -2.04753460619082
H         3.09867976323061    8.24842842127609   -1.75612106828887
C         2.68839228641814    9.69926934639722   -0.21869014997817
H         1.99879392135002    9.11152615455002    0.39646882057311
C         4.09110531823595    9.55654879250333    0.35490796638816
H         4.40501728165344    8.51423071281533    0.33259329448153
H         4.11739226524406    9.90192193884938    1.38714780111186
H         4.79193951006356   10.14453909142573   -0.23321801260615

