58
CSD_code = DEPLOA | q = 0 | S = 0 | Stoichiometry = C27H25NP2PdSe2 | MND = 5
Pd        4.31755792458474    2.29434665015035    4.20481823373443
Se        1.86927431497746    1.55468750008602    4.39518652008220
Se        5.23600361806812    4.51023834152010    3.18900252332697
P         1.94335433011355    2.84569165603825    2.67367092091674
P         3.25651644178059    4.98381562881570    3.88440245757383
N         2.03296950395854    4.43563134288495    2.97214610834735
C         6.41504979283102    1.75593442273579    4.21081789211824
H         6.41438442647273    1.14875852459351    3.30259685673664
H         7.22433770428484    2.47502880157767    4.28116398485816
C         5.80644107948307    1.28035896639671    5.37166527042744
H         6.05587158742716    1.71669702251498    6.33880925242724
C         4.68100331699399    0.45500877800729    5.24272712967549
H         4.11547005674745    0.17997163722445    6.12826726450086
H         4.64533793290443   -0.27286486483252    4.43181602076544
C         3.27137782671709    2.30791256014088    1.52420926038737
C         3.63855766462923    3.19512462930082    0.51912297450383
H         3.09422778887435    4.12409722517420    0.41222976883463
C         4.71059610309055    2.89516930490290   -0.30170530374969
H         5.00882069760593    3.59204646000258   -1.07027149778761
C         5.41110726760788    1.71310315875108   -0.12363446162701
H         6.25922684700724    1.48972647366580   -0.75385229927933
C         5.02509729799072    0.80954485052445    0.85502078066094
H         5.55455557734571   -0.12763163139500    0.96577594113810
C         3.95468949830342    1.10065385320835    1.68937580431232
H         3.58994944559332    0.35887427792545    2.40741332891365
C         0.42647454442394    2.66583501471978    1.71092414503472
C         0.17885995853489    1.44323030494574    1.10121022837218
H         0.89914830099586    0.64198364825020    1.20774181541092
C        -0.98329018526024    1.26273765418806    0.37638179846870
H        -1.18171519085343    0.31449013488256   -0.10138575731352
C        -1.89570272089150    2.30106829817506    0.26647897433105
H        -2.80478794069026    2.15923105533724   -0.29948549408457
C        -1.64964111612428    3.51690522639090    0.88320221630465
H        -2.36669940226782    4.32063567740673    0.79897732237033
C        -0.48737122725594    3.70233164459562    1.61030694251226
H        -0.27465136690587    4.64008914237324    2.10185105442021
C         3.02409895345586    6.77324315020094    3.90287259556578
C         2.21508608344375    7.39652875793603    2.96649856216924
H         1.69520972125600    6.79342923312938    2.23683774737486
C         2.08577894353422    8.77360311516812    2.98723526757853
H         1.45532278509980    9.26701456401939    2.26182343951160
C         2.76678962345714    9.51974550649937    3.93530984499132
H         2.66465298799206   10.59504179110964    3.94833223768564
C         3.58308426387237    8.89381814172766    4.86495891081904
H         4.11613294538796    9.48003904265494    5.59910411010320
C         3.71554841255175    7.51859653124926    4.84822151818568
H         4.35463438349412    7.01183817882359    5.56012357843435
C         3.04612970482639    4.46906659494899    5.63536188187643
C         4.11080189382509    3.98364437103432    6.40009384546542
H         5.14091248356174    4.10544875578821    6.04421230427039
C         3.85230927245069    3.45123632937293    7.65536665064595
H         4.66647519279886    3.07587473287678    8.26094416000547
C         2.55315255619216    3.40913861643893    8.14018477188823
H         2.35779109063594    2.97291712147620    9.10868167146012
C         1.50839515195828    3.92857997441147    7.39368810441818
H         0.50044869881395    3.90327639249824    7.77932739781080
C         1.75093154253838    4.45659705255656    6.13804881041139
H         0.94431160975376    4.83525867469474    5.52419461168813

