61
CSD_code = DEPMAN | q = 0 | S = 0 | Stoichiometry = C28H27NP2PdSe2 | MND = 5
Pd       -0.47985738402695    1.78668856969447    2.93336623801815
Se        1.97875558483173    1.12626336347341    2.74058598067028
Se       -1.42020799285698    4.08666141014379    3.67395836855859
N         1.76345031024412    4.02315126098379    4.13967296008717
P         1.85789920072288    2.43647310702990    4.44622576876753
P         0.60648579591937    4.53520196188883    3.12423681659749
C        -0.84358635957302   -0.15175962787042    2.13257958964233
H        -0.31111712821156   -0.51465781845384    1.25695744981918
H        -0.75735010986975   -0.78950597623025    3.01160284407011
C        -2.00642361629740    0.62196159952373    1.95496417579673
C        -2.50540220548212    0.97654288529804    0.58307046059502
H        -3.23596133392492    0.22258208464700    0.28287888861580
H        -1.69449795877899    0.96562297981772   -0.14477231985397
H        -3.00373596903086    1.94617402627037    0.57356069578236
C        -2.54913425269319    1.20806436410409    3.10326180691988
H        -2.47900299344427    0.70460121636833    4.07006376729794
H        -3.38632798096284    1.89261387414389    3.00669082906714
C         3.35071210069209    2.27010232649870    5.45214502999856
C         4.16770349758130    3.35899993872662    5.70998373349087
H         3.90337695525336    4.32264614160396    5.30118685987100
C         5.30486332361684    3.19073030933962    6.47970862323419
H         5.94697780282706    4.03522999686758    6.68404650992905
C         5.62187294623485    1.94075190987862    6.98552217644647
H         6.51124915638681    1.81251927662795    7.58507584965864
C         4.80608354032105    0.85135429051709    6.72053472075300
H         5.06018434992863   -0.12320938076480    7.11096571071243
C         3.66965345851446    1.01474134598558    5.95232722464388
H         3.02866063783445    0.17360574747820    5.72199656000360
C         0.50913228473264    1.90179502289469    5.57549709663496
C        -0.00222228995325    2.83557506284509    6.47090500892955
H         0.42032027417823    3.83148088379307    6.49416375507432
C        -1.05729750842332    2.48796521077087    7.29442207010422
H        -1.46796339383251    3.21804161179291    7.97546121745172
C        -1.59294083243345    1.21103561378247    7.23641427463697
H        -2.42436871830534    0.94682431495701    7.87328338557217
C        -1.06432500076011    0.26814173211311    6.36776238222070
H        -1.46966971508835   -0.73471831275418    6.34395439195817
C        -0.01311376045347    0.60790583729741    5.52829224173623
H         0.45164203175158   -0.14036563414354    4.88361902982980
C         0.96228492496595    3.98213400530894    1.41393417371974
C         0.00452615065909    3.37861826221424    0.60028868307822
H        -1.04967418587413    3.36915061641660    0.90562681808664
C         0.38888261519141    2.89330436209510   -0.64110734892608
H        -0.34347484443349    2.44510974490275   -1.29847362047574
C         1.70910536084979    2.99343787566393   -1.05218194011343
H         2.00268349950183    2.59351897414730   -2.01157497959206
C         2.65144051373325    3.60765418732505   -0.24368706891152
H         3.67777327666850    3.68698888158056   -0.56903271045248
C         2.27953161435593    4.10651937048086    0.99089419685032
H         3.00127167152932    4.57145583664611    1.64955247872718
C         0.83341771168308    6.32454845089722    3.06643418031639
C         0.18032009209615    7.03835459037237    2.07079811306298
H        -0.42361201254773    6.50606424070320    1.34677787357311
C         0.30425738967546    8.41344866287792    2.02125168030996
H        -0.19936507293376    8.97487871842824    1.24798818485918
C         1.07363474096174    9.07154249333231    2.96865664781502
H         1.16863919455813   10.14690805865163    2.93031289033656
C         1.71605266895965    8.35737542035989    3.96678075379364
H         2.30971530722202    8.87531308744390    4.70608134822971
C         1.59502190410094    6.98039445414602    4.01993660043768
H         2.08505073190861    6.40214717913238    4.78927087193162

