43
CSD_code = DEPMUJ | q = -1 | S = 0 | Stoichiometry = C15H3F18FeO6(1-) | MND = 6
Fe        5.11242789054507   11.87345357644132    3.63571628385319
O         4.51518619597661   13.14253665341585    2.27857078859752
O         4.95275419593360   10.34008354942700    2.43972785810721
O         5.80643772205176   10.68898127115857    5.02001384135102
O         3.25361195144098   11.57837829693596    4.15040981072135
O         5.21805202326533   13.33296270355158    4.92783613303815
O         6.93468675780405   12.15159339036104    2.99631504710745
C         3.77317181535035   13.96353557772941    0.17717326775425
C         4.20485374093345   12.81937567521239    1.10931912005875
C         4.19805302660265   11.55190838773158    0.52554939264033
H         3.89748252128887   11.44588984792873   -0.50381235727463
C         4.57283532642264   10.41930735270900    1.24923537823161
C         1.38613612038854   10.70746416587378    5.33124029077023
C         2.89945431994703   10.82445042477477    5.08542471302900
C         3.69489113523196   10.06443703967725    5.94386778418485
H         3.22605572879225    9.46426624031167    6.70620392169475
C         5.08592983452046   10.06745862706491    5.83410226965372
C         5.81985154071178    9.18636527086800    6.85818868220015
F         7.06884831944515   14.98074505758837    7.13463226353799
C         6.23476626838519   14.04439227162754    5.09512528314316
C         7.46233899164516   13.98353252934376    4.43440234299705
H         8.24052972748918   14.67993898337729    4.70013015080341
C         7.70209810686506   13.03732822827486    3.43726747646254
F         2.52129871504704   13.79602297798531   -0.28856023927183
F         4.55473406005930   14.04443006722087   -0.91815948199066
F         3.80992888135388   15.15924855736729    0.75984227017952
F         0.95340481638381    9.43569712655382    5.21937938849681
F         1.04050009795364   11.09475731792409    6.57322429145771
F         0.65820728940810   11.43269562566971    4.48572189768165
F         5.52407558285294    9.53253190619577    8.12679440114800
F         5.47698014247070    7.88895492360723    6.75227842331479
F         7.14475994206929    9.24430255476160    6.74712040957677
C         6.13467769139663   15.13445384640305    6.17503352809013
F         6.33585572233695   16.36767195910986    5.67445368656776
F         4.95588295085663   15.15739867067001    6.79202323968866
C         4.50183523684818    9.09725732893430    0.46723658080292
F         3.26280061459722    8.85654155718156   -0.00588453426227
F         5.30320252428792    9.10145419516820   -0.61429656828872
F         4.84371794231680    8.03699552847626    1.19525252675637
C         9.09979290193212   13.10715816214034    2.80040326728934
F         9.33279580970048   14.30395789604973    2.22547232845103
F        10.08163116816923   12.94918474636742    3.70769441471443
F         9.29516464891902   12.18799993082711    1.85833042693778

