60
CSD_code = DEPRIA | q = 0 | S = 0 | Stoichiometry = C32H20O6SW | MND = 6
W         7.23792977399836   -6.01357579287033   19.32490969753458
S         8.97993439345801   -4.59934546959028   16.88051092238656
O         2.66813948225926   -0.15253312830300   21.69822635464926
C         7.73219572834980   -4.29234709641254   18.02827637910634
O         4.16313142537609   -5.41848745153284   19.12419688912926
C         3.34755559467955   -1.31000225664875   21.89444686618543
C         7.32694695413929   -4.91369760619963   20.98452042085070
C         2.92504275068697   -3.98256039045591   24.49955498309567
H         3.11782747682439   -5.03805472309595   24.61764954401524
C         4.27239755188826   -1.75516940633318   21.00734963738240
H         4.80747654534210   -2.66131292656937   21.22591294013387
C         2.09839729903850   -1.90977582181098   25.37441830131586
H         1.65074936877252   -1.34337848677974   26.17749259016683
C         6.19454111809439   -2.62753362217413   18.89988210477436
H         6.02517390777932   -3.29296728358930   19.73447171644301
C         5.28898784966475   -5.62767145279597   19.16434671544812
C         2.91841016227313    0.58319697470868   20.58801288617471
C         3.24644424260637   -3.36005398989255   23.30925764380827
H         3.66718184547265   -3.94231726741575   22.50462891443829
C         9.35996774311742   -3.07479510226201   16.00600505060100
C         3.00278241146901   -1.99558284190883   23.14009790829265
C         5.48863465889293   -1.42859221992861   18.85867442510033
H         5.64514495633401   -0.77392970868636   18.01062771821054
C         4.56882744226823   -1.02487100687789   19.81402965169756
C         9.83280329775719   -1.97266528269478   16.70401150036136
H         9.94006170759492   -2.02332913180253   17.77768717219457
C         2.35456450367055   -3.26137146862161   25.53647555562129
H         2.10705194372084   -3.75222722835584   26.46552661906034
C         7.10682772818446   -3.04417474442273   17.95574169326863
H         7.32003003733084   -2.35863513908015   17.13811165302674
C         2.12921227931153    1.81370698571391   20.51179050083234
C         9.23018748740055   -3.03526894720649   14.62674251529901
H         8.86869596555034   -3.90486085346263   14.09946015042363
C         9.56565970505666   -1.87911613645439   13.94354251586102
H         9.46601687160256   -1.84431286301338   12.86890776201550
O         7.32879063841225   -4.32128914598624   21.96681636023611
C         1.62507884130186    2.38788389996765   21.67974247613133
H         1.83006171097735    1.92117896252915   22.63067303716511
C         1.85831730601392    2.42751191552824   19.28814789283615
H         2.21046927766440    1.98184616689903   18.37092895561339
C         2.41650951645709   -1.28119011959504   24.18653257929176
H         2.22293552246305   -0.22652106071545   24.06578192555522
C         3.83306769490245    0.19313258548938   19.66484153007515
H         4.02715277944570    0.81457724997420   18.80669615144152
C         0.62623175516728    4.15759375676110   20.40734699059530
H         0.04491307483218    5.06619310941511   20.36536893752391
C         1.11333520492169    3.58974267834338   19.24079531468543
H         0.90604797801075    4.05332513756659   18.28792737938665
C        10.15855060834938   -0.81876187481294   16.01423224339874
H        10.52222638707888    0.04252343061070   16.55483791053804
O        10.30815651882211   -6.62936441570936   19.58815544431092
C         6.80877818568660   -7.59162119493481   20.46831065519247
C         0.88312328121443    3.55162393403863   21.62610716248619
H         0.50380822788915    3.98811283660689   22.53793331355856
O         7.09468920312637   -7.75052473206503   16.70867198517928
C         9.19695890215921   -6.39263323093282   19.48499841638980
C        10.02573434752331   -0.77098630788486   14.63568268146493
H        10.28506248693638    0.13027814192198   14.10036473579223
C         7.14432634715424   -7.12061507274889   17.65858425137792
O         6.55354199367888   -8.48860376372960   21.13372377097129

