51
CSD_code = DEPXAX | q = 0 | S = 0 | Stoichiometry = C22H24Cl2P2Pd | MND = 4
Pd        6.60717130537332   18.29941897398545    5.10340499165215
P         8.51627247817730   17.29907981394112    5.68338794685165
P         7.78068259781914   20.20228744660509    5.16479998613874
Cl        5.53860279400238   16.32649634108414    4.82912417890096
Cl        4.81576186114591   19.55980872467053    4.52867043774886
C         9.26635269764841   17.66860020975480    7.34547763341466
C        10.73836033224336   17.43581014702094    7.10381208427352
C        11.59975775355971   16.88974579591508    8.19021214184881
C        11.08604555924400   17.89471360716286    5.89785686793128
C        12.42752576227956   17.95038294772218    5.25382703886770
C         9.88823974064481   18.46316708918020    5.18585480084174
C         9.05429276993384   19.20032812462333    7.37828766496122
C         9.38793632425718   19.70784249195048    5.95737562109037
C         9.00748171238218   15.65926936631523    5.12377483845362
C         9.55256357389700   14.66782690355130    5.92862361051158
C         9.85789049231711   13.43605549669832    5.37653105588356
C         9.61265846938089   13.19191838174664    4.03527764961368
C         9.04792936196424   14.17463516210524    3.23591934118373
C         8.73751951668077   15.40506323414931    3.78011027457207
C         8.23078671229528   20.60242066688092    3.45101689349699
C         7.82741275194399   19.72410055646068    2.44719476867356
C         8.16875758995000   19.97926705573857    1.13123494734421
C         8.91110375597044   21.10669513681538    0.81563301630793
C         9.31058294424217   21.98320727747342    1.81249961636495
C         8.97167960465918   21.73552237816947    3.13033473216152
C         7.29001020680665   21.79479042584082    5.83971735661013
C         7.85301029942821   22.42310962221948    6.86231325834377
H         8.84870090841983   17.16335162632612    8.21635993434421
H        12.59359726955601   16.64964691475393    7.82401647659308
H        11.15772461603983   15.98999351692723    8.61525475302185
H        11.69473560442622   17.62007828774381    8.99508313717915
H        12.40140466741670   17.42593739680186    4.29870013914172
H        13.18948643963958   17.49692466117251    5.88061553047622
H        12.70856557055396   18.98523609807544    5.05689388540218
H        10.03236133857435   18.64852795525432    4.11888425679441
H         8.00617506098996   19.42312159992824    7.62948727657405
H         9.69339307834112   19.65382508593567    8.13823327120782
H        10.12880575258912   20.51337049085943    5.94643589914028
H         9.72561999419097   14.85516491621959    6.97728978964630
H        10.28084631899491   12.65982653689018    5.99729314378310
H         9.84805403669468   12.22588933464085    3.61380049696676
H         8.83941961261418   13.97275432278118    2.19599251133457
H         8.26082390285503   16.17955751419982    3.18541321684118
H         7.21839964309152   18.84746954450656    2.70925003133959
H         7.85120126455856   19.30494048965213    0.35015280767730
H         9.17353913648594   21.30749807801488   -0.21234851811584
H         9.88291507789229   22.86370612102840    1.56010974869962
H         9.27030003230598   22.41870452286314    3.91389282185597
H         6.40629595622022   22.18527078257877    5.34449451404286
H         8.71406980488214   22.03150046493023    7.37909687426579
H         7.46637594441978   23.36164036013644    7.22612524774414

