91
CSD_code = DEQDIM | q = 0 | S = 0 | Stoichiometry = C44H36MoO8P2 | MND = 6
Mo        1.30261082055127    0.46214443681813    3.60437293698424
P         2.85618505673990    2.16754353987211    2.86560876547877
P         2.63278139062467   -0.52864889666403    5.35216796390890
O         4.21648858379189    2.70286147886735    3.58887082003951
O         7.06057695352157    3.23391626249845    3.56042690854689
O         7.33400267781071    0.29273426444955    3.86851200630500
O         4.19769051875853   -0.17618952874540    5.57943574617246
O         2.59201898901844   -1.37528228203578    1.46437209302801
O        -0.96340528341996   -1.55693417310813    4.14132735058916
O        -0.00941029918589    2.17794061076926    5.82555659083331
O        -0.66957661552445    1.53052117719155    1.48730823231597
C         4.20761033825455    3.47807625297180    4.72918690351356
C         3.48525198169638    3.10657551367435    5.85099301286544
C         3.51581790439728    3.88587014529825    6.99258263658766
C         4.26721168773409    5.04813927245780    7.01360453062301
C         4.97580497919408    5.42914173367293    5.88854811430739
C         4.96044007995565    4.65592762093378    4.73335322811278
C         5.65214459958123    5.11942110782096    3.51460436259142
C         5.26815181591076    6.32589502031961    2.94791346614268
C         5.84888013852437    6.78293117459441    1.77813870690310
C         6.82363770124632    6.02066203895712    1.16364658870868
C         7.23871275218829    4.82419829176733    1.72472854078784
C         6.67028203436271    4.36727116393461    2.90790344027682
C         8.09986616219936    2.46135369311576    2.99925322652693
C         8.37274442979227    1.24299689769301    3.88967658703202
C         6.33550478286565    0.51826499951199    4.84292889493691
C         5.11952632329235   -0.34419562571365    4.52049532808362
C         2.13671564000561    3.77728359554329    2.37119526605945
C         2.87504637163109    4.61774811944551    1.54288406113695
C         2.37655717656854    5.85724002116016    1.19163578439597
C         1.14361931041092    6.27049818953056    1.67148238799878
C         0.41244179391006    5.44278839854336    2.50631271014727
C         0.90840631591659    4.19877980948012    2.85758845742525
C         3.63243736273944    1.69350475502593    1.29680711817101
C         4.97418468591773    1.35153586343499    1.19839134595742
C         5.49098149209654    0.92155561179072   -0.01190526940192
C         4.67348657724639    0.82914814489798   -1.12476935021794
C         3.33193268549311    1.16714075207071   -1.02896349097557
C         2.81118321664235    1.59272298023503    0.17749640015668
C         2.67818059496703   -2.35774908146923    5.46637985682503
C         3.44918344842453   -4.29682398997343    6.66292999754584
C         3.37091494988752   -2.92401331653713    6.53383415158327
C         2.83489637451082   -5.11547999261616    5.72727018972123
C         2.15117066211353   -4.55691455744885    4.66130502873563
C         2.07427005404947   -3.18030226101958    4.52796438823997
C         2.07876366317198   -0.16851708486356    7.04135134399586
C         2.86396805138864    0.47897007941439    7.98635120276707
C         2.34513922947645    0.75290731110804    9.24052231501691
C         1.04896382706707    0.38339229440894    9.55626342771699
C         0.26544864074249   -0.26892547511272    8.61653139970676
C         0.77783991418322   -0.54228856150040    7.36309743281576
C        -0.08324303441591   -0.84484663784217    3.97676371526668
C         0.49500208559410    1.58594657506344    4.98733804990701
C         0.09228015400027    1.17069388406917    2.26093071278185
C         2.12712852212792   -0.69969005534103    2.26057800901264
H         2.89843033107378    2.19855594449052    5.81808613002631
H         2.94500838111414    3.58229669844532    7.85710966385872
H         4.29402728050553    5.66242453604573    7.90098958570888
H         5.55531873298380    6.34085619277175    5.89313552755933
H         4.48714436944384    6.89704012242406    3.42843787215874
H         5.53746464438152    7.72275061470190    1.34873981105753
H         7.27724137906871    6.35542549523299    0.24258246017006
H         8.01091632899656    4.25757989647333    1.22907659001985
H         9.02202208246721    3.05622382885237    2.93008690214136
H         7.82193256277897    2.11203970045575    1.99662019189249
H         9.25763369739393    0.73262101359958    3.49818016995871
H         8.57358954481665    1.57561579033294    4.91522617222355
H         6.04001887100863    1.57168437850541    4.86544659354060
H         6.71551582388528    0.24303511560125    5.83970462612832
H         4.67405622978378   -0.03392623030934    3.56397327512871
H         5.42038951708288   -1.39521253817052    4.43572158743778
H         3.83943019953620    4.29422259630414    1.17422183744024
H         2.95098942244641    6.50125334798599    0.54214970852185
H         0.75324307332532    7.23880103603477    1.39436011446694
H        -0.54679467509161    5.76430676410186    2.88452542396701
H         0.33558241902156    3.55066381336679    3.50778158975012
H         5.60809880841737    1.41655617437292    2.06868519872279
H         6.53431306099596    0.64766614653893   -0.08261398714741
H         5.07803835947098    0.48909235205017   -2.06671963234390
H         2.69168755884999    1.09323579998894   -1.89578757158224
H         1.76344825827536    1.85564395872585    0.25941626354328
H         3.98512050691045   -4.73201419306880    7.49403946309161
H         3.84551277207750   -2.27538848884984    7.25863125342118
H         2.89135435526717   -6.18917457141987    5.83018669423385
H         1.67564970323604   -5.19336996294220    3.92967163869845
H         1.54208763547879   -2.74662920993592    3.69183197452173
H         3.87386630881359    0.76957879913342    7.73711531152756
H         2.95693392372789    1.25886602334105    9.97399743400914
H         0.64700088306666    0.60362948220779   10.53429918333275
H        -0.74546205195890   -0.55938059456139    8.86162775494442
H         0.17313943162277   -1.05051139529684    6.62107956311320

