54
CSD_code = DEQGUB | q = 1 | S = 0 | Stoichiometry = C17H33N3Rh(1+) | MND = 7
Rh        2.23877617209720    1.52970319865414    2.48398017928776
N         2.89663674089242    1.47338548663290    4.74715051660164
N         3.16957861347007    3.83899920077538    3.01737148749672
N         0.52086675308236    2.67611508443961    3.41788795742667
C        -0.82246163263045    2.28843400003339    2.96708881207146
H        -1.00771890706526    1.24276589213201    3.20651513237227
H        -0.92970670475223    2.43208421987754    1.89431748921887
H        -1.58653222884356    2.89914867845953    3.46310743912399
C         1.07881996839274    0.52777564465926    0.98050071359131
H         0.04971962291746    0.44754131819778    1.32074717858569
C         1.51953899690734    1.77602945490050    0.51420863251620
H         0.79008882302419    2.58462158494604    0.46948194132702
C         2.62637668656836    1.94217702849050   -0.49933744775385
H         2.83793190691767    3.00615775231564   -0.61088693018103
H         2.27405599041662    1.58430653341804   -1.47154483958922
C         1.64500433793894   -0.77674077767435    0.46413504148426
H         1.99749196236256   -0.63468935181617   -0.55702778660330
H         0.85227649478576   -1.52486709875608    0.43286488636998
C         3.51001077746579   -0.14535448597452    2.04237478584212
H         4.03936359232232   -0.46993979510379    2.93213421222735
C         4.00482823151005    0.98924780772569    1.40159793747022
H         4.85152038813379    1.48134164517256    1.87910657177957
C         3.91440938718977    1.20610759406434   -0.09327276454133
H         3.97292779096503    0.23603120385767   -0.58794645493386
H         4.77560011833612    1.78719040708863   -0.42424719047394
C         2.77814772534103   -1.27750672534556    1.36558570712077
H         3.49709355640941   -1.87313926138813    0.79476693443852
H         2.36424169600712   -1.92952338994456    2.13764579381105
C         0.58443891958569    2.47157490226561    4.88367861388550
H         0.87546980486865    3.40001280517931    5.37466237887229
H        -0.40685615974762    2.21755591803199    5.27259030773440
C         1.52789049038374    1.34137516430296    5.28190756127745
H         1.55064176385072    1.28446231802426    6.38221320530187
H         1.12416050808703    0.39552067492241    4.90304395295183
C         3.65862629764662    0.32474116586553    5.24882499203895
H         4.67905478124614    0.35851278463073    4.87232907612573
H         3.19025137643410   -0.60826860424501    4.94046364555766
H         3.69564152432931    0.33530267445395    6.34559484191007
C         3.56076706888935    2.70902711418542    5.21555610909869
H         4.39411883953495    2.45772181124746    5.87833302808127
H         2.86646090632414    3.30125030849182    5.81307910306534
C         0.70252843260575    4.10259465580427    3.08012815450845
H        -0.08696199166582    4.70286611177542    3.55524373040390
H         0.59216770689581    4.19992420018876    1.99842241362718
C         2.06217719991761    4.68232449343062    3.48090976717062
H         2.13005811504565    5.68652104950228    3.04686077315354
H         2.11745220439309    4.81619497945798    4.56233122168068
C         3.84291590942998    4.47727293949726    1.88896825869363
H         3.11713502185955    4.68023096334788    1.10520394569365
H         4.60983686178891    3.81969680894540    1.48834197365082
H         4.31543632579398    5.42310091376516    2.18544248111700
C         4.13599112349466    3.55855681713505    4.07794693014132
H         4.53704445398334    4.48827630805934    4.51311852731265
H         4.96946565485067    3.01684787190070    3.62539907085646

