80
CSD_code = DEQGEM | q = 0 | S = 0 | Stoichiometry = C41H32IIrO3P2 | MND = 5
Ir        4.75947598638206    5.76618806708164    4.26047929713675
I         4.02517775794580    3.15350756806012    3.70428078575791
P         6.32164773900504    5.81083065695404    2.31518727989331
P         2.85494958216603    6.56051546612389    3.10540824722036
O         4.06191007778241    5.44881154856232    0.89479145777131
O         6.92017805683786    4.72326209906702    6.09092225784225
C         6.42176678425857    7.41626661002576    1.46380746587731
C         3.38937309129165    9.25647190325414    3.04464184908932
H         3.52435615500252    9.12045174921294    4.10975238064682
C         4.27763183783865    6.98867053599748    5.60128127989258
C         6.11518282524418    5.13150074697712    5.38056765581376
C         2.76060916991741    5.04091736170698    0.85891642580682
C         6.23372559195159    4.64037557183831    0.92386274630983
C         8.32947393229911    4.28686750404561    3.38849548959201
H         7.54856481588178    3.53789194015010    3.44021709946301
C         1.96439318608543    5.54825682188419    1.88400779641554
C         0.63126819804735    5.17376388025365    1.94982454494615
H        -0.00197667778947    5.54173259447105    2.74256289603450
C         0.12975684805794    4.30453910122401    0.99781983558570
H        -0.90572808236646    4.00406992444393    1.04555357113352
C         8.04545649083603    5.54028432328518    2.84524426227233
C         2.27729606173438    4.16100955735098   -0.10102969699295
C         9.04565003021405    6.50080982596883    2.78188328485082
H         8.83824975869038    7.47616124348585    2.36504318590157
C         3.04000805216445    8.16381642854203    2.25362325444787
C         6.91055625283622    2.88798261891212   -0.54873362393968
H         7.67475420212958    2.22238419453022   -0.92050985053098
C         9.59708952826020    3.99877820352310    3.85358150642345
H         9.80806914571245    3.02605212560239    4.27215150054812
C         3.54105703883305   10.50799753608561    2.48256732138645
H         3.79231518001971   11.35224845338239    3.10770426073476
C         7.22337073274124    3.79293637771148    0.44986864021238
H         8.22095629988982    3.83255768818218    0.86002677642141
C         6.52101196259690    8.81733980592568   -0.48155301383554
H         6.53116096307721    8.92233247061264   -1.55689648630517
C        10.59203827342438    4.96223984405770    3.78916569943147
H        11.58248960365499    4.74172419070455    4.15869917268622
C         1.47385381355719    6.91912486118887    4.24572695341267
C         0.93939493976832    3.80136204466414   -0.00671577911065
H         0.51265664742327    3.11641782998905   -0.72068581683870
C         5.63061994519359    2.81409120088492   -1.07378016234773
H         5.42737375645535    2.08541143348613   -1.84117245170376
C         6.44130169314521    7.55620367489989    0.08232455529814
H         6.39981548531937    6.68239856108600   -0.55279487277276
C         4.95922502826603    4.56821791948178    0.36326437149593
O         4.00026201216145    7.72743786480746    6.44561045161391
C        -0.44580798062620    8.18252287427694    4.94426563108416
H        -1.11691081816465    9.01667380510542    4.79912059258738
C         6.58268902366607    9.80524909473677    1.70290114142017
H         6.64507476115592   10.67952642784123    2.33398053486721
C         2.87015151733041    8.34067972937102    0.88694130349523
H         2.58844374041456    7.50736809977044    0.26011243117396
C         0.59898758293196    7.98404686555153    4.05940947448375
H         0.73543558434645    8.65939529287154    3.22615386454862
C         0.22287688199253    6.24337679594466    6.18800526948070
H         0.07556212574259    5.56143722308412    7.01200757032834
C         3.37261378829787   10.67755407036173    1.11739860796902
H         3.49621423020260   11.65452242105713    0.67440562044371
C        -0.63383099311926    7.31724223283139    6.00950943782225
H        -1.44942288018503    7.47926514579478    6.69852301528564
C         3.04370450847324    9.59312812313399    0.32376117903040
H         2.91215107266589    9.72251485853080   -0.74073192098222
C         6.59845801405950    9.94035688100277    0.32389617632064
H         6.66997765859887   10.92132137933227   -0.12192033890768
C         6.48011365725612    8.55029593856658    2.26930391453247
H         6.44891552936241    8.43346978968311    3.34628823671977
C        10.31424117648734    6.20791906062587    3.25352509853009
H        11.08860840415690    6.95966127579066    3.20216543013263
C         3.21775598314363    3.71202781248403   -1.20588938882990
C         2.79456277523430    2.37366451963651   -1.80976706717670
H         3.47156090088622    2.08625946770618   -2.60929585509158
H         1.80120940190573    2.44892870668738   -2.24324219160783
H         2.79346867442988    1.59809940803360   -1.04779893758507
C         3.20371400001155    4.79712414125710   -2.30276202784003
H         3.51531952710476    5.75962731810036   -1.89943925177012
H         2.20118305449524    4.90301733098227   -2.71244147929928
H         3.88555081835621    4.52527479494768   -3.10596788501080
C         1.27279516267903    6.04530151076187    5.31100862186499
H         1.94172321146736    5.20561578976742    5.45070268943783
C         4.62244013128495    3.66041988468577   -0.63132330245023

