68
CSD_code = DEQHIQ | q = 1 | S = 0 | Stoichiometry = C29H35N3Rh(1+) | MND = 7
Rh        6.40496884756587    6.36856735739800    6.48914444272220
N         4.71426714451490    7.17891149486773    5.16040676048167
N         5.54286616645161    4.49736506284117    6.49893976204927
N         4.33652560882041    6.54070107801565    7.95010532707178
C         4.12104695916875    7.63070846097701    8.91716465726499
H         5.00169799214252    7.67630326322919    9.56044150828031
H         4.05900235282071    8.55901807105360    8.34320956832368
C         2.88644254407901    7.49762643355811    9.77552376009567
C         2.90704707736511    6.74003975014713   10.94164393786572
H         3.82718373059727    6.27426632951173   11.26530831734750
C         1.76600732056480    6.59875907883395   11.71152967263779
H         1.79910023147205    6.01010310031524   12.61569390850867
C         0.58821712135358    7.21824741243506   11.32952539889848
H        -0.30119014637644    7.10858834037575   11.93026563259878
C         0.56218168528347    7.99619208456042   10.18503308504965
H        -0.34643401554575    8.50091382011196    9.89369762339365
C         1.70437770466545    8.13631031733915    9.41594921752303
H         1.68347409649452    8.77236196853731    8.54105164971221
C         7.03388527235003    8.23965785505212    7.34579726111298
H         6.15396708774409    8.87232727022275    7.45528004789294
C         7.59642266858698    8.15507864945775    6.08411924639010
H         7.11889731167257    8.74178402594553    5.30407079609994
C         9.06320718340477    7.86375146899951    5.84863660556818
H         9.38970518260377    8.38361855306660    4.94704827652629
H         9.63844061531895    8.27106603276863    6.68058116816689
C         7.79965538967016    8.02513555900562    8.62882858910121
H         7.10063922443184    8.04382083347780    9.46607666583866
H         8.48078206484373    8.87038800235791    8.76989309251058
C         7.96458380879158    5.65367001407978    7.74803854748146
H         7.64052918937791    4.75353349564998    8.27212963684766
C         8.34245536913636    5.48909299777513    6.40641712815324
H         8.30307033588449    4.47454284941147    6.01105471201677
C         9.34524674775247    6.36000413036053    5.68824509345981
H        10.34741192160696    6.12168753047296    6.05817090524860
H         9.33092407144850    6.09938230727224    4.62745476480519
C         8.58380428104601    6.70221667434139    8.64858440309235
H         9.61603267370905    6.86542739691515    8.33669604063132
H         8.61529478616540    6.32309628189727    9.67090706275741
C         3.24599826207131    6.48429021602623    6.97802868771522
H         2.28848763591378    6.77634200707222    7.42487582105997
H         3.13463347865820    5.45568244794496    6.61894759255431
C         3.52838063816291    7.33351741802967    5.76456692715046
C         2.54241036638388    8.16813352841174    5.26296358012329
H         1.60603280461506    8.27320055240032    5.78717640298859
C         2.77264642793715    8.85042188133842    4.07904944300278
H         2.02990436827041    9.51863072758450    3.67253189156815
C         3.96584281957108    8.62951384130639    3.42176605400430
H         4.17185287180336    9.10194611238671    2.47466405986581
C         4.91764902734326    7.78186536919411    3.98461875563871
C         6.16573825279786    7.49595177870029    3.21111418187814
H         6.58770907280490    8.41446936508980    2.80934063811742
H         5.91841038010698    6.85292084590812    2.36611894676787
H         6.90958452942820    6.99927642151927    3.83053366098724
C         4.54093063591300    5.25558863288011    8.61318567271698
H         3.64759482846559    4.93922402976478    9.17318595721989
H         5.36404688846232    5.37438616709360    9.32657861727914
C         4.88942231362125    4.17004160370157    7.62748009862425
C         4.49213091543677    2.86880776990921    7.89513509845902
H         3.98328159712501    2.64576052622791    8.81922126175400
C         4.75194884180582    1.87109701343446    6.97022610718839
H         4.47043447888004    0.84885265801025    7.16534508514449
C         5.34725496203711    2.23194659487795    5.77779219255105
H         5.52563294140013    1.50349964627616    5.00325419079594
C         5.72511079554268    3.55402951469821    5.56557022298924
C         6.30558353876151    3.93923900889197    4.24455066426600
H         7.16625965136175    3.31911289088422    4.00249898840271
H         6.59669505672265    4.98719988464862    4.25545399870417
H         5.55965401158898    3.78508619316735    3.46556092695200

