70
CSD_code = DEQLOB | q = 0 | S = 0 | Stoichiometry = C30H34IrN2OPS | MND = 4
Ir        1.12296128318940   -1.70775321074351   11.69730862596433
S        -0.85115073194009   -2.72342854081887   12.68070855647618
P         1.62782738348782   -0.44729095514780   13.52912658401391
O         3.41910137334128   -0.50298058146085   10.17945352181164
N         0.24206889406062   -3.01847304274696   10.33961303333730
N        -1.54543794127098   -4.31591892076610   10.47322621155426
C         2.53031327031323   -1.00869457936061   10.73650313830837
C        -0.76804919979303   -3.41352041479732   11.11320446524921
C        -0.97355796330321   -4.48574842077840    9.22502562419137
H        -1.38634476939440   -5.15143202935586    8.50021956275826
C         0.12649187470869   -3.68501337099711    9.14919448434950
C        -2.74045210645029   -4.95707235644404   11.01398400276453
C        -3.76464679175200   -3.86859319713891   11.35328118485204
H        -4.66601247884735   -4.31812857091757   11.76082294089091
H        -3.35742620064470   -3.18185210093111   12.09086665573844
H        -4.02627724302260   -3.30410171869144   10.46010306056161
C        -2.34785612108723   -5.73720136789654   12.27339554564031
H        -1.93058829883595   -5.06731808371984   13.02099378027321
H        -1.60438862015547   -6.49491423789639   12.03235136437332
H        -3.22134197347734   -6.22528559411680   12.69718689750952
C        -3.33899619121245   -5.91721701378106    9.98661455397058
H        -2.63303370335582   -6.70354662791489    9.72851110678064
H        -3.63495826210326   -5.38882122696443    9.08299457922361
H        -4.22425517990427   -6.38253286292136   10.41278851221210
C         1.09742135509176   -3.49217874108246    8.01921336897053
C         0.72014333802118   -4.38177603515612    6.83271410674291
H         1.43214101537071   -4.23575151663512    6.02367645340365
H        -0.27243997741429   -4.13376503403665    6.46371671659875
H         0.73530673637054   -5.43159436894616    7.11666935136314
C         1.06530879298953   -2.02154808435031    7.58694037331064
H         1.79157576789079   -1.84540728657442    6.79711344811600
H         0.07670632375139   -1.75736255980706    7.21665708617473
H         1.30297154358970   -1.37856475261539    8.43110759379752
C         2.50388273535490   -3.85897076590423    8.50678789161357
H         2.54360445188616   -4.90820663817330    8.79276422122208
H         3.23251825340903   -3.68493134417201    7.71867308607167
H         2.76998478584864   -3.25352081944389    9.37024865564366
C         1.20474038403236   -1.21307646861420   15.12740793581447
C        -0.13534918725939   -1.26505598002330   15.50334139115046
H        -0.88254577791463   -0.79698647931717   14.87727305786627
C        -0.50706137815451   -1.91553817051935   16.66378053178331
H        -1.54827096558158   -1.95268615670568   16.94908639072852
C         0.45300847558965   -2.52636566418647   17.45518295587568
H         0.16119436305700   -3.03734989736528   18.36104859337104
C         1.78513816757346   -2.48751816636344   17.07950310622343
H         2.53426174481863   -2.96848905551213   17.69184836513691
C         2.16263996816929   -1.83917226634800   15.91657503989580
H         3.20227615333199   -1.81572239737590   15.62126507410093
C         0.73554536021636    1.13903939007784   13.61316568078646
C         0.45588889407563    1.79802129360705   14.80679982922151
H         0.75285391944527    1.35815495216826   15.74946172069859
C        -0.21241007809805    3.00900753908112   14.78526569565761
H        -0.42993209018233    3.51842133890805   15.71300784373188
C        -0.60459963239660    3.56856003179167   13.57948948683405
H        -1.12863139391921    4.51297654538774   13.56961455129153
C        -0.33064160449062    2.91462347109932   12.38914490808730
H        -0.64085038506054    3.34804267186204   11.44983450422276
C         0.33641465986841    1.70325233775888   12.40632876735341
H         0.55390698759815    1.16794551453768   11.48797277844245
C         3.36604937336161    0.04641094499262   13.80373567681539
C         3.74534142466131    1.24886605545042   14.38564849053700
H         2.99669602365566    1.96833369216190   14.68365694654703
C         5.08742921420931    1.53273504755831   14.57242029792419
H         5.37849191840519    2.47195540024284   15.01992170258268
C         6.05524289739957    0.62116700964224   14.18598620235918
H         7.10066767856803    0.84900216388624   14.33270852279302
C         5.68205030772735   -0.57994028126113   13.60341260513012
H         6.43550257125482   -1.28964357262121   13.29551016184661
C         4.34368900278794   -0.86345709774714   13.40923662168215
H         4.03244757855072   -1.78929677304419   12.93900421769560

