63
CSD_code = DEQMIW | q = 1 | S = 0 | Stoichiometry = C24H32N3O3Pt(1+) | MND = 6
Pt       11.84360695352255    7.95404650053847    8.27230950927031
N        11.23001641267071    8.18881647204836   10.33880075661049
N        12.50197650374101    6.08921751732043    9.21702391918198
N        14.82695038735650    8.58126552109945    9.06982036253452
O        14.70004370954660    6.93420192160657    6.50010309530886
O         9.57075120148978    5.75201350790826    9.64786049831644
O        13.05291679934649   10.83716805947731    8.65399344370027
C        12.39576253243664    7.45474916180443    6.29605621728482
H        12.20686189943535    6.37844909441057    6.22746972266220
H        11.80419265795482    7.97580714712933    5.54279591547453
C        13.85132398275469    7.71263069215127    6.10670913721723
C        14.21454379489353    8.99270450270491    5.39808427580311
H        13.93850828531504    9.84029840481780    6.02208204278122
H        13.67406696026975    9.06833569819005    4.45805075814803
H        15.28281062268645    9.02577655365083    5.20328816076316
C         9.89247428544540    7.26118461231312    7.85255494814814
H         9.19854831363728    7.93646865498610    8.36461021069528
H         9.65676782091275    7.24053710170604    6.78790346906790
C         9.75259371644916    5.91621543685503    8.45028321075299
C         9.82349308748292    4.73837265977145    7.50871977319373
H        10.01914090511515    3.82225001105130    8.06098297062148
H        10.57180039436837    4.87935885204612    6.73400994327989
H         8.85248255472847    4.64157918227199    7.02381517149362
C        11.19593242752834    9.81443317482354    7.54719385371903
H        10.94556569805455    9.82760609667214    6.48262836393979
H        10.26866012235900   10.06834889705205    8.07707376489851
C        12.15878379866249   10.93007615085306    7.83954291547519
C        11.92160206907794   12.19104927147027    7.05505361587547
H        12.48094718528129   13.01534362011663    7.48965649301119
H        10.86357301153679   12.43624931693423    7.01842858588890
H        12.26233626464558   12.04036915759855    6.03163935732486
C        13.71403775078023    8.58232252895821    8.76156525993106
C        16.19780033700073    8.69015689893378    9.37098657978870
C        16.69223976904560    7.28674422669104    9.72793822840254
H        16.17230969907475    6.90391165014185   10.60413691209700
H        17.75621315141545    7.31986419019576    9.94284764842781
H        16.52350911841456    6.60944160263691    8.89348943834936
C        16.34963068709990    9.66624334685196   10.53779241497791
H        15.90902424070268   10.62751551384182   10.28429507427928
H        17.40367367345920    9.80910672663967   10.75717803904851
H        15.85740437970161    9.28237807342326   11.42872739931628
C        16.89484356888058    9.20789933329278    8.11135195432981
H        16.73668387246946    8.51465377401648    7.28877421771973
H        17.96124990508664    9.29531082197710    8.29737403207291
H        16.50502093298954   10.18479048620805    7.83562572729473
C        10.62986310510255    9.25624513264600   10.85010571408242
H        10.66635231715927   10.16345201743998   10.26308143901293
C        10.00123923273625    9.24520661276490   12.08152354765688
H         9.52376271484726   10.13614360205261   12.45486357587243
C         9.98777690809312    8.05968140659987   12.80126214079957
H         9.47861639219295    7.99614858158338   13.75012236515358
C        10.64716175308687    6.95977672147694   12.28744760747083
H        10.64214779881833    6.03170142291110   12.83180285512356
C        11.27711740642494    7.04914992841393   11.04491532647728
C        12.06042318218052    5.93905520068892   10.47494678639868
C        12.37837883584183    4.79489643788149   11.20525467238149
H        12.02982291758822    4.67373823932853   12.21632709955388
C        13.15106740869296    3.80544083919392   10.62374483776716
H        13.39044663645840    2.90878314884952   11.17405690925930
C        13.62210582353469    3.99501804554411    9.33438295203051
H        14.24419077972408    3.26196475061820    8.84800961513032
C        13.27294359101956    5.15806801701811    8.66969409096574
H        13.65370775167152    5.36106776979618    7.67693107638605

