88
CSD_code = DEQMOB | q = 0 | S = 0 | Stoichiometry = C36H43AgBN6P | MND = 4
Ag       -0.00023347769155   -0.00002706544997    6.09143682046088
P         0.00001787461195   -0.00007662755706    3.63269575627002
B        -0.00006251750549   -0.00000354698192    9.35948273753421
N        -1.61510289685258   -0.80161652061957    7.57724915375824
N        -1.38298521182312   -0.45347589314727    8.85237206248395
C        -2.88972959878215   -1.15910531738210    7.47629055415904
C        -3.50545741496662   -1.04009200773928    8.72414802773125
C        -2.51322447117162   -0.58453817470985    9.57341233647684
C        -2.62956893776821   -0.26480913789224   11.02126340294081
C        -3.47942412772060   -1.61481505408914    6.18738847342058
C         0.61729103564504    1.52249939821571    2.83756556937139
C        -0.11561838132282    2.16060201593355    1.84012215434655
C         0.31911045297921    3.35496728218153    1.29644222074199
C         1.49198984249419    3.93039674989008    1.75305174603776
C         2.22624815720187    3.30174214988213    2.74338843093619
C         1.81109400310214    2.09930189114847    3.29900488758187
C         2.63623250840426    1.43364130262072    4.35078314037805
H        -0.00001490287956    0.00002535740642   10.54010387472579
H        -4.52628826299040   -1.25234853783670    8.97177950782445
H        -2.36326897091924    0.77452766431570   11.20550449268341
H        -3.65358163578864   -0.43010784227226   11.34696071620748
H        -1.96620715655002   -0.89330815040207   11.61319727710798
H        -2.73910244240794   -1.52910465255822    5.39279192806773
H        -4.34705686586642   -1.01048367791770    5.92688519144785
H        -3.80012930118148   -2.65359935723791    6.26059001627994
H        -1.03176856523724    1.71294382782903    1.48098023548712
H        -0.25780002276737    3.83377916061939    0.51911073911416
H         1.83668584416704    4.86562987764217    1.33744173283277
H         3.14358449222066    3.75372505270051    3.09365554208791
H         3.47887545959375    2.05844356947736    4.63651331259135
H         3.02099456038522    0.48089903580468    3.98475801625497
H         2.03415035794442    1.22840042689012    5.24681792467146
C        -1.62716419699836   -0.22665327046348    2.83746371871931
C        -1.81327761164431   -1.18023674126900    1.83984858590556
C        -3.06495711557344   -1.40083972694218    1.29599875113201
C        -4.14976854996571   -0.67298101818571    1.75281464589404
C        -3.97256791752639    0.27691836419578    2.74345944301011
C        -2.72364496459869    0.51864713254665    3.29905337050731
C        -2.55966218779830    1.56613072038865    4.35075367850359
H        -3.52205767296593    1.98343602360773    4.63662457150895
H        -1.92703845769308    2.37575172793739    3.98462280009323
H        -2.08068872088991    1.14735220897020    5.24670174816120
H        -4.82269955913543    0.84528921964758    3.09376214438853
H        -5.13205958185033   -0.84218670655279    1.33724284656861
H        -3.19106635418087   -2.13985548563519    0.51862132339091
H        -0.96755284838634   -1.74994968567767    1.48083358519464
C         1.00982320126782   -1.29590892416311    2.83731770370632
C         1.92898701009824   -0.98015908725958    1.83996628807323
C         2.74617616669466   -1.95377887083293    1.29652540385723
C         2.65797934305729   -3.25730017104293    1.75294334423244
C         1.74617128817677   -3.57896933721673    2.74301604460750
C         0.91247308746946   -2.61818690659133    3.29871491639228
C        -0.07630851628021   -2.99984599906442    4.35078063367180
H         0.04352367999929   -4.04196838116190    4.63660353284413
H        -1.09385372244976   -2.85673825263706    3.98493752065281
H         0.04715993393970   -2.37567673818011    5.24671543143603
H         1.67879673924340   -4.59942628337954    3.09317628977964
H         3.29543638019673   -4.02340621473577    1.33711805627827
H         3.44920766482513   -1.69363694487639    0.51911461075821
H         1.99929921527260    0.03706559002014    1.48078428136254
N         1.08408500674675   -0.97091251452873    8.85228482681109
N         1.50160007495525   -0.99787328973614    7.57715428693682
N         0.11326924549673    1.79939522528852    7.57714828193231
N         0.29867624070091    1.42436094652026    8.85229159268955
C         0.75025181137620    2.46875649993826    9.57330188797132
C         0.85186094828594    3.55579011779547    8.72399633163803
C         0.44096647585118    3.08200156650623    7.47614674368393
C         0.34126936126240    3.82048989246713    6.18720495297895
H         0.04543302921296    3.13645924273209    5.39260589441900
H         1.29847867352063    4.26971255169230    5.92678582250665
H        -0.39800346228677    4.61762075414970    6.26028431276765
H         1.17841862269959    4.54600482737918    8.97159630029515
C         1.08537234074165    2.40970439965585   11.02115376656645
H         1.85218588320818    1.65927905879235   11.20540411711621
H         1.45437001298953    3.37917799369322   11.34674930346462
H         0.20937317128214    2.14970222460825   11.61314650789693
C         2.44854374403440   -1.92295478537644    7.47618913067903
C         2.65335342868866   -2.51570532366990    8.72403961789965
C         1.76273887703389   -1.88419422715860    9.57332982490510
C         1.54433284880939   -2.14467323626980   11.02123148193779
H         0.51108519945675   -2.43353368882675   11.20581405355486
H         2.19952258023811   -2.94890987772641   11.34683981635827
H         1.75727037155919   -1.25591929844111   11.61301801791373
H         3.34763170231169   -3.29360894514415    8.97165502123905
C         3.13798627298429   -2.20582486688667    6.18726367766062
H         2.69353952085750   -1.60758032120422    5.39266998816651
H         3.04841588959386   -3.25939868448534    5.92682280440855
H         4.19795696952623   -1.96416568197744    6.26036838296071

