31
CSD_code = DEQNIX | q = 0 | S = 0 | Stoichiometry = C10H17BrN2Ni | MND = 5
Ni        3.43102300404410    1.55748693207025   -1.51029741937470
Br        3.18257182487414    1.56997834585195    0.70757706517637
N         2.37101722930694    4.30476823500906   -1.67381037422231
N         0.81640413453219    2.83900976856439   -1.84963950639572
C         4.88944312428697    0.21070971904090   -1.53599771151422
C         4.16774688446811    0.17276245897101   -2.72676058132659
C         3.94620619016596    1.37520410470060   -3.41205947466499
C         2.15358326482546    2.97874520835381   -1.76578230011501
C         1.18133089174538    4.99852731898904   -1.71072575081912
C         0.19388606182117    4.06742877428756   -1.82161597214236
C         3.66815398360078    4.89233140403023   -1.48580928032893
C         0.14655528359248    1.56859944600571   -1.88435207262657
C         1.12950486554000    6.47964011491476   -1.62275566188316
C        -1.28277358758277    4.20418047758425   -1.89061891942874
H         5.70462342212680    0.93287069617774   -1.42055817831111
H         4.99668338357726   -0.68617757884501   -0.93651720287766
H         3.58491689531951   -0.71038262236930   -2.97911717639254
H         4.75118985561623    2.11031966245807   -3.45331843884619
H         3.30585030906125    1.37711291145998   -4.28684631990236
H         3.67021920967331    5.53046079572350   -0.60182630819331
H         3.96524697505927    5.47928376456655   -2.35745092093731
H         4.38492796642462    4.07923535174948   -1.33027442422728
H        -0.56536649314338    1.49279493357658   -1.06175218988745
H        -0.37687747561311    1.42489124307459   -2.83175479941283
H         0.90433778900096    0.78610522877913   -1.76323108109657
H         1.49249460356734    6.81758260555786   -0.65215705974107
H         1.75034082595347    6.93438076877099   -2.39423618520389
H         0.10834856543903    6.82675257209342   -1.74811154897196
H        -1.56108169471712    5.25331711712126   -1.91824213854244
H        -1.74923975409741    3.74572902768304   -1.01875392966295
H        -1.67536753845460    3.71495121404998   -2.78170413812734

