55
CSD_code = DEQRUN | q = 0 | S = 0 | Stoichiometry = C25H23Cl2NO2PRe | MND = 6
Re        9.26751602012921    2.33174348013122   12.23221987372106
Cl       11.41665755660004    1.62751929183573   12.90826088910793
Cl        9.03899871083063    3.69544299237287   14.07644919149354
P         6.88586191148095    2.92434298435823   11.67800787713231
O         9.86814663518862    3.51714986683767   11.24065050540974
O         8.54449044662293    0.90281609672536   13.04459656183159
N         9.45174261826835    0.84217108133020   10.49507230169486
C         9.44038372493880    1.33403041127335    9.26123239713563
H         9.47422206738930    2.41282970419086    9.19044530277456
C         9.40300699597863    0.53432521123332    8.13632264054661
H         9.40990137506092    0.97894229228814    7.15498642993849
C         9.35208310889434   -0.84084587799151    8.30912771354382
H         9.30556156042558   -1.50443442784425    7.45881383488069
C         9.37859411757079   -1.34743431675464    9.59467810368941
H         9.36094444932442   -2.41248098307300    9.76749795728404
C         9.45226702185493   -0.48034292321894   10.68341317766359
C         9.58058940325606   -1.01102003997307   12.07704257608149
H        10.53986161209238   -0.65802290174062   12.47604688814563
H         9.55602817954129   -2.10023535732212   12.07922613851279
C         8.48897007389021   -0.45748122572544   13.02186315143184
H         7.48758797736242   -0.78767011989576   12.68423984474807
H         8.65198916901147   -0.86043165515767   14.03400225962570
C         6.49773024835299    4.69706313990311   11.62279892322359
C         7.53800906780456    5.61434531680082   11.51607088235810
H         8.56018333282886    5.25818004464800   11.48061901362935
C         7.25602127970390    6.96815927314730   11.46829146212610
H         8.06244537375922    7.68095192830352   11.39006667880134
C         5.94325520570748    7.40683158475674   11.52883558502867
H         5.72486614794482    8.46397713081787   11.49723521333819
C         4.90697073951918    6.49235315293080   11.63770504756265
H         3.88467937080581    6.83637616583468   11.69035183939256
C         5.17877517964759    5.13782978280950   11.68699845080686
H         4.37307386775605    4.42304827616658   11.78065510925302
C         5.63148931789498    2.23751013177633   12.79680612609307
C         5.89314725487572    2.28642141216337   14.16401519552445
H         6.82570937518654    2.71185881168581   14.51235582605590
C         4.96292418667767    1.79361024042556   15.06135589663177
H         5.16995332846000    1.82993278225704   16.12033456466892
C         3.77063900406543    1.25579738660973   14.60391508048975
H         3.04591788240136    0.86894510083066   15.30503946105620
C         3.50452842291658    1.21685148710740   13.24471218139803
H         2.57211079627362    0.80500916724568   12.88648971096449
C         4.42892404351945    1.70603759135399   12.33885246634650
H         4.21375856522370    1.67519681027765   11.27935675734895
C         6.43998324961901    2.29811254587162   10.03453217628304
C         6.29487686685186    0.92189750482624    9.86054493763287
H         6.35418597935096    0.26858110536926   10.72147866492564
C         6.07225976121008    0.39617505146370    8.60331218603481
H         5.95213128211364   -0.67008637911179    8.47760732137372
C         6.00841802685813    1.23775144565784    7.50320446014112
H         5.83687818643908    0.82637405923555    6.51981870795658
C         6.16661309060533    2.60386022277477    7.66674887905223
H         6.11996708122017    3.25892107256257    6.80953517445306
C         6.38589693623232    3.13561368297748    8.92544280508564
H         6.51397281245692    4.20069938663860    9.05531759856673

