42
CSD_code = DEQTUP | q = 1 | S = 0 | Stoichiometry = C11H24N3O2PtS(1+) | MND = 4
Pt        2.63055362847302   10.33950445827401   19.27411525677788
S         4.20929114385510    8.75092908224636   18.61797828733717
N         1.35785000984029   11.94160485734670   19.96848802529729
H         0.65772877392387   12.32446796466765   19.33014085122528
H         0.89433173397143   11.55528341808347   20.79431194992020
N         4.04682321075103   11.88320617264062   19.20225026593953
H         4.60699736186260   11.70341226308089   20.04358777100100
H         4.69139979685576   11.91317767770674   18.41079119062693
N         1.18985274509727    8.86268306587284   19.52554073747049
H         0.34027640273157    9.32772870953405   19.85399447200334
H         0.95096625434539    8.35816636342596   18.66629253816545
O         2.18915102539706    9.98394785591074   21.74137856056154
O         2.74185705641315    8.03854326242054   22.70754078734854
C         2.27430384146945   13.00863057892452   20.42262392118392
H         2.73395625871296   12.64963185141126   21.35076157983639
C         1.54179314598790   14.32519615157880   20.67904504208744
H         0.79250592685291   14.18432530967103   21.45898847065151
H         1.03041933221018   14.64038536468348   19.76543092782560
C         2.53196530630289   15.40880278498433   21.10082414524113
H         2.99888554066521   15.12728701126306   22.04561738213735
H         1.99875328639183   16.34546950632624   21.25843226219785
C         3.60462929370135   15.59750117548129   20.03379846500781
H         3.14385337592906   15.93488928732819   19.10363484780490
H         4.31163746564009   16.36274152496570   20.35136927129141
C         4.35185917043850   14.28749322102268   19.79055341112604
H         5.10999260352115   14.42917492100353   19.01821170182654
H         4.85486822343510   13.98607178029798   20.71220904710437
C         3.37340424247211   13.19089743235184   19.36880525038232
H         2.91252731943512   13.45427979326118   18.40857202558901
C         1.61610115590268    7.92664181933608   20.57911749551608
H         0.74565018839197    7.41102277459538   20.99569775516851
C         2.27143848124475    8.75031468282739   21.85463675038693
C         2.60535578255381    6.89026813976140   20.06587039675979
H         2.69308132858137    6.12555338408566   20.84036638481560
H         2.22997411886909    6.40294438527252   19.15931607079119
C         4.01460698144813    7.42673767848520   19.85139718411494
H         4.68576779827536    6.62733025148678   19.53662770567660
H         4.38847124551533    7.85270157141433   20.78335867230848
C         3.63193452900547    7.93405888986989   17.09982643873190
H         3.62125387729576    8.67980441025628   16.31167363599629
H         2.64324992399799    7.50528141576504   17.22060160398214
H         4.34768111223619    7.15460775107859   16.85232146078415

