79
CSD_code = DERKIX | q = 0 | S = 0 | Stoichiometry = C34H38Cl2NO2PRu | MND = 6
Ru        0.83291798503120    2.91991754513004    6.22715380736558
Cl       -0.92618113506325    2.77631131794436    7.75571153767782
Cl       -0.69569015766827    3.42340405357111    4.60492653483089
P         2.03485449024543    1.66615342459621    7.76801974848060
O         0.99154698149242    1.05693545183357    5.20674980952854
O         2.24792710330116    2.71948846528421    4.61657781926847
N         1.41223182941630    4.44907984492371    6.82976323778592
C         3.48100821854973    0.86721720663058    7.02103495738336
C         2.69754666641318    2.61260881428539    9.16948726864319
C         5.47034362138767    5.85787365944044    8.42194945257371
H         5.96961944283983    6.07344039796735    9.35495789906955
C         3.62798977995558   -0.51290353864352    6.95000365047031
H         2.87848318694363   -1.15858918383304    7.38581617572416
C         5.68874947126621   -0.22372800726780    5.74901436697087
H         6.54691356909613   -0.65099020230567    5.25140729813680
C         1.79352326288331    3.42798767474097    9.84845892922582
H         0.76520656261017    3.46913905265846    9.51046634363799
C         1.45355574687047    7.55069799473192    5.73601573171058
H         1.20778402866998    6.91567236013499    4.88778948838741
H         0.86832783078056    8.46467408613329    5.66337074726800
H         2.51001573486351    7.80814949411743    5.68798787504826
C         4.08672349052916    5.86919463355468    8.37083990436986
H         3.51732244247687    6.07089955231147    9.26372236851890
C         3.53590957796075    4.09207512581388   11.35897258176583
H         3.86429091122745    4.66596788247479   12.21324012674038
C         3.43887457990696    5.58813452455755    7.17599377146273
C         1.11987598082231    0.31383896317238    8.55622559472359
C         1.79512073912248    1.57630373150152    4.38819843825680
C         4.18302107753482    5.27324942122233    6.04216351001201
H         3.66829313836827    5.02273279028672    5.12509313977922
C        -0.24150332785877   -1.78816764751831    9.74359580059338
H        -0.77586734503188   -2.60311649860268   10.20934277634336
C         5.56577712230177    5.27497288633405    6.09912685454850
H         6.13830556314707    5.03891175202279    5.21414164480704
C         5.53879862249449    1.15416211263466    5.81203114962713
H         6.27946830883968    1.80178596542432    5.36620732392930
C         2.17297719696116    0.82623435444176    3.12153267502455
C         1.95464476515157    5.54057317193035    7.05186277521567
C         2.20012307161580   -0.67459066762909    3.40546040770773
H         2.36845415687845   -1.22388786406483    2.48170564764935
H         2.99617619948706   -0.91565942615756    4.10798450814055
H         1.25378176432830   -0.99240195542456    3.83655099394745
C         1.12394737419764    6.82972296392744    7.04676883565894
C         1.06620919409911    1.15849048906026    2.11067405443533
H         1.25664168142432    0.64852359708469    1.16829121108179
H         0.09748488753619    0.84211512988032    2.49219225029956
H         1.02725314989292    2.23076642607458    1.92957222161325
C         4.43637079889208    1.70021624407023    6.44071834642011
H         4.29810260730111    2.77398630624256    6.48471369836774
C         6.21136219073756    5.56928440962493    7.28874502881904
H         7.29042308373807    5.56641297675350    7.33392773373432
C         4.43509314328656    3.28651841887315   10.68098440563360
H         5.46364424410167    3.22992755253991   11.00602919064511
C        -0.35940392724018    6.45965477953467    7.08706783907065
H        -0.62311348870195    5.83301508025608    6.23524721800007
H        -0.59389827145152    5.90607156457219    7.99445431856862
H        -0.96976624952807    7.35902683270811    7.05610242571846
C         4.73409066354696   -1.05279577721662    6.31470570909391
H         4.84835351821660   -2.12556785005143    6.25841107316022
C         0.08615038009154   -0.32057459780767    7.87356840918675
H        -0.19106184940218    0.01113673408400    6.88235791096200
C         2.21494858532856    4.16133479506113   10.94154277600866
H         1.51229827837839    4.78733498036486   11.47188864922354
C         1.47839728037241    7.71060218624490    8.24316522261429
H         2.51596812409022    8.03331147441968    8.20327716843279
H         0.84453354743114    8.59472662985568    8.23343084093966
H         1.30421917872090    7.17805840184912    9.17535310285392
C         1.47133996443941   -0.10995092458410    9.83521431274094
H         2.27145676485058    0.38529648075018   10.36759693304733
C        -0.59052935139132   -1.36889892171066    8.47013464059341
H        -1.39718002042323   -1.85550866659036    7.94232129918445
C         3.52590147197890    1.31692844812104    2.61261572638528
H         3.75629612361312    0.84718472377648    1.65890687157023
H         3.50747668231775    2.39579245226869    2.47981357101595
H         4.31141929274310    1.07196226879614    3.32520364303352
C         0.78918974329556   -1.15945086593077   10.42326774198311
H         1.06037874820110   -1.48399085641681   11.41731786636483
C         4.02103933847131    2.54390583239376    9.58846391563287
H         4.72502086082225    1.90997756070177    9.06799916553060

