110
CSD_code = DERLUK | q = 0 | S = 0 | Stoichiometry = C53H51Cl2NP2Ru | MND = 5
Ru        2.57374632223815    1.62890511839280    3.25157320753219
Cl        2.16060257430423    2.58826066066620    1.06722287543024
Cl        5.00724713861849    2.14916307038385    3.68786646636145
P         1.73991316701125    3.74169094941036    3.61944390537958
P         3.23338119244097   -0.40831829930183    2.45118828011355
N         2.75466967239717    1.12422578061214    5.10944376275903
C         0.02780893874979    3.97969340327651    3.05791368345679
C         2.21903528300159   -1.42639866950820    1.32574882282594
C         1.70117348446325    4.39664436720190    5.34020988968811
C         2.04069373164667    6.46992905071652    3.17401120267351
H         1.11384195428600    6.55150212668069    3.72654365752400
C         1.72671739532720    0.66313927982520    5.78211620861613
C         4.76240791586804   -0.46894604487669    1.44722532456705
C         2.57206120718260   -2.27159882747476    4.40607086984360
H         1.57412481099033   -2.19878121862716    3.99348055024400
C        -1.68681667693230   -0.25568959465551    4.51463308721242
H        -2.62910124320069   -0.66700456082204    4.84876892423843
C         5.04381795613967    1.65945937264102    5.36457909342344
C         3.60513596880242   -1.53790699135217    3.82798678742554
C         4.41160812382226    6.25247551453681    1.76084115504697
H         5.33531111251051    6.16499038289454    1.20730914694022
C         3.77759680949377    5.11206659504739    2.22329400469109
H         4.19850980057185    4.13986675116750    2.00679482950695
C         0.74206472118209    0.83305884756623    3.61751243848381
C        -2.31086485730073    3.48484276932718    3.33357831647214
H        -3.10550904218751    3.01678762945201    3.89683271499461
C        -0.26111380490336    4.65463082195870    1.87694836414556
H         0.53998358406764    5.08624164752903    1.29397234927739
C         6.36141450024917    1.79959398549330    6.04622337540870
H         7.14224249750461    1.36238943010256    5.41831268965413
H         6.32077656346060    1.24596035671375    6.98445373360454
C         0.73076698365724    5.40862021351270    7.29449159101564
H        -0.13708205829805    5.79662653158824    7.80821627954339
C         3.86177653521951    7.49892626873160    2.00152179857350
H         4.35479273793200    8.38862560356903    1.63748960620172
C         2.58647113849242    5.21159067050704    2.92825161603429
C         6.22815046716461    0.64467074833076   -0.09980965527935
H         6.49522822865879    1.52647046490964   -0.66364429700736
C         5.11195927261672    0.66222271844376    0.71774656680707
H         4.49018633282922    1.54837519604722    0.77576220535021
C        -1.56897972446507    4.75115253288431    1.43748637735295
H        -1.78625036516717    5.27395706539425    0.51728536148077
C        -1.00504069222392    3.37832671935741    3.77391297386678
H        -0.77957657862894    2.81553066060497    4.66996659938294
C         3.88758512895435    1.23252874266465    5.88419479176009
C        -1.51098325766320    0.08249972453010    3.17785261170235
H        -2.31809788569867   -0.07028272343613    2.47497240127474
C         2.18997773396434   -2.81654355640532    1.35766935023082
H         2.73191503229772   -3.36110564196635    2.11821212596873
C         3.07994699270160    4.94774252217231    7.24399314991494
H         4.05160966798381    4.97894425857485    7.71683106232441
C         2.67328545821415    7.60526836880962    2.70774225832901
H         2.23986520150536    8.57729919172204    2.89499789513886
C         5.11468796785632   -2.37200505475444    5.50627848943908
H         6.10219071832005   -2.39808876063306    5.94490523910753
C         2.94437952215024    4.43711654725505    5.96801062981402
H         3.81463967604655    4.07785021584114    5.43278258539441
C         1.54572441088557   -0.74815391831664    0.31434324559407
H         1.60546449588632    0.33110254832759    0.27243017254439
C         4.87072676003549   -1.56895263984381    4.40715357235503
H         5.66874276172228   -0.97289076112078    3.98369333488299
C         4.09995869585627   -3.15305822280882    6.03498471994718
H         4.29681000998556   -3.79779637551086    6.87941977893873
C         0.56108731272979    0.46000285705983    4.98110615464258
C         6.99675096128891   -0.50251492777597   -0.19799553935153
H         7.87096308343918   -0.51692760827903   -0.83261907951297
C         0.81719617320209   -1.45002607152569   -0.62806902311708
H         0.29102474035891   -0.91664131956882   -1.40611131855118
C        -2.59543534816870    4.17412552233569    2.16638936694569
H        -3.61577348845401    4.25160752217189    1.81944686980016
C        -0.31574336496144    0.62928970844738    2.74432008882908
H        -0.21448580330163    0.91929967320693    1.70744182260128
C         2.03799001944150    0.52372249476036    7.25862829606761
C         2.82665076351766   -3.09457989817776    5.48803608117098
H         2.03056875342867   -3.69589607698181    5.90450311375131
C         0.59559702571474    4.90084752381632    6.01291924172985
H        -0.37431734956827    4.91115313954342    5.53794692709204
C         1.45847534029618   -3.51233524848164    0.41228849310730
H         1.43305376005251   -4.59246574627024    0.44582239311203
C         1.29857401744756    1.62976447421474    8.02309264127283
H         1.57412743128206    2.60960647000999    7.64075319456314
H         0.22355408722963    1.51191958230995    7.91084688464179
H         1.54392660563778    1.58468925803659    9.08262115876067
C         3.57097066881826    0.76811532660978    7.28157737383423
H         3.85309296094211    1.51389567765402    8.02454335772037
H         4.10902608246355   -0.15744585630430    7.49808873256021
C         0.76573717074425   -2.83292488745517   -0.57612210159756
H         0.19414467279167   -3.38374646212827   -1.30912363903085
C         5.52100820245314   -1.62932943867913    1.32321441049138
H         5.23781035179662   -2.52107289426881    1.86525131271064
C         1.96750433133256    5.42976541475104    7.91551288146471
H         2.06670996631353    5.82741289013271    8.91486413078414
C         6.63748606222165   -1.63968549523417    0.50886561613681
H         7.22824528396056   -2.54030746975809    0.42021462238523
C        -0.66191265175880   -0.06530870790887    5.41516376840358
H        -0.80587439748978   -0.32054446479789    6.45506748522920
C         6.71026193058247    3.26934595071091    6.31559316156802
H         5.96574638650840    3.69297036073270    6.99215466547186
H         6.65874756323780    3.81873726402005    5.37300822114908
C         1.69426375154627   -0.83811616582993    7.85907504437888
H         2.07583001278837   -0.89446228329766    8.87730546137674
H         0.62000919175705   -0.99190508019675    7.89175346386020
H         2.13922670893278   -1.63644182866974    7.27175011054198
C         8.10306944453790    3.44793631494726    6.91727099103192
H         8.84068732514003    2.97201118417339    6.26765838865982
H         8.33012025625501    4.51587154922023    6.94677205308486
C         8.22516688952325    2.88020211442280    8.32654979406057
H         9.20304368159320    3.11194359218836    8.74178743265610
H         7.46739704591874    3.31088494511609    8.97774634693687
H         8.10698421567232    1.79971355717019    8.32704499112671

