111
CSD_code = DERMAO | q = 0 | S = 0 | Stoichiometry = C49H52FeN2O5P2 | MND = 5
Fe        6.36911749164799    6.68429401293423    2.52936214113012
P         7.09837054453778    6.92697181842129    0.53735929963358
P         5.27286628335102    6.72751801302226    4.36181402632261
O         4.58295756560678    4.48930696576172    1.79398348088150
O         5.75009544960214    9.53402116141815    2.31686080246165
O         9.02091675488431    5.98676009807152    3.58056513700327
O         7.91160597220914    5.74369458780515   -0.18663799144788
O         5.13197804449872    5.40067754352989    5.25838001495286
N         7.76709275563502    2.09565646307564   -0.60609445753520
N         7.41332487352778    2.74362396980112    6.40199940464261
C         5.30705423828057    5.35285517769682    2.06381872631615
C         5.99583589725409    8.40809537355286    2.41274795543912
C         7.97300066638222    6.26363000447655    3.17879556661421
C         7.92488142540006    4.37806049211170    0.22908607525034
C         7.54615868116554    3.48635518345840   -0.97634682376066
C         5.96986338893003    4.25090965600668    5.15414651475271
C         6.67230565561997    3.99302918060504    6.50797142008379
C         6.70400466816755    1.48869400211452    0.16771428921078
C         8.15089166988409    1.25312742771737   -1.71586268764620
C         7.49638649011424    2.01167771207552    7.64550052945253
C         8.71265806030072    2.84851429715977    5.77040053119153
C         9.29919648171734    4.02287476219669    0.73406700896231
C        10.42700046956193    4.45615927013128    0.04919146596455
C        11.69129440438113    4.14716665319443    0.51789997653610
C        11.83975607946400    3.39547137855688    1.67089974577457
C        10.71921339102541    2.95306256401928    2.35258947050120
C         9.45573100726200    3.26759596160004    1.88649620631390
C         6.13887860770955    3.81374651222694   -1.48598075684841
C         5.12874177910270    3.05965133645972    4.77569043190729
C         5.59193276626168    2.12783886400509    3.85930957827813
C         4.81396419277144    1.03744614995389    3.51481829557131
C         3.56212751368488    0.87125045543311    4.08171987490110
C         3.09559118157473    1.79463454064712    5.00152255366260
C         3.87737232480669    2.88099937945172    5.35104591490281
C         7.49579913958258    5.20691299067226    6.94914754072712
C         5.89986533836360    7.35997262119200   -0.77938661616085
C         6.38301419304593    7.49313856431193   -2.07907862315771
C         5.51526798571075    7.78945309669978   -3.11216649245925
C         4.16250601532184    7.95483947199272   -2.85301299108695
C         3.68006252282289    7.82127290723542   -1.56219983655562
C         4.54668053536655    7.52175418042163   -0.52434946474080
C         8.33395328342804    8.24780475677816    0.30403549798207
C         7.95172277461710    9.53379134472337   -0.06125081168490
C         8.89945034188988   10.53763549401893   -0.14594522914761
C        10.22766007807502   10.26640247298521    0.14013992106981
C        10.60913780104242    8.98929057970529    0.51954535858286
C         9.66487081553034    7.98361268148754    0.61028431195280
C         3.49638748092981    7.10309023096357    4.19162527373926
C         2.57651161763505    6.07851158972314    3.99748754227889
C         1.24333395359066    6.37840891411264    3.78256292484202
C         0.82441107428049    7.69826128369901    3.74640215869767
C         1.74184860533905    8.72251712495073    3.92212873832328
C         3.07470291668832    8.42823957359576    4.13948831533200
C         5.73639631373837    7.94858330046109    5.64803221325708
C         4.94794491731764    8.01980667430075    6.79356607385775
C         5.28618786291405    8.88966451993538    7.81213403002948
C         6.41257508819060    9.69027940794686    7.69269850737856
C         7.20246960038640    9.61476512660393    6.55808625385810
C         6.86827127891838    8.74154145038927    5.53668920113269
H         7.19675000034666    4.24242461051318    1.04093704451951
H         8.26633997757308    3.72061077037446   -1.76905862851201
H         6.72434321111421    4.43009796714204    4.37303571649901
H         5.87620019924745    3.82802178962408    7.24344094904015
H         7.10174133628064    0.59373433213334    0.64817393013439
H         6.36414463446043    2.17242577688618    0.94004384419332
H         5.83779587669427    1.19664850273812   -0.44373583427675
H         8.42095570086078    0.27189345794492   -1.32681680275537
H         9.02378004552927    1.67893273884114   -2.20825980581299
H         7.35165242719216    1.11936997848227   -2.46190736936496
H         7.94966722606033    1.04136134126931    7.44553582420170
H         8.09849990621784    2.52079110034126    8.41454008732198
H         6.49321902076149    1.84764103824500    8.03593865569436
H         9.02485079365597    1.84792538811242    5.46820567488940
H         9.48368702534737    3.26434633405564    6.43503892938388
H         8.65188747125699    3.47241252203356    4.88343686795370
H        10.30899460825305    5.04906829636773   -0.84648870408780
H        12.56282143799111    4.49555107484901   -0.01760496112472
H        12.82711415178231    3.15713475406667    2.03866500268630
H        10.82903820185975    2.36948376176273    3.25491660549987
H         8.58196818533855    2.92486271023645    2.42056867228955
H         6.11712126637403    4.81678706131752   -1.90433760836312
H         5.85265127504733    3.11204466342711   -2.26672613467553
H         5.40894729433438    3.76131138610484   -0.68159767739994
H         6.56865360087148    2.25686110073840    3.41767449749653
H         5.18251858914564    0.32037930261345    2.79593340314109
H         2.95070282850163    0.02414035565037    3.80695806313396
H         2.11984907570748    1.66875531819074    5.44850992667565
H         3.51457132474308    3.60426703694196    6.06735081346723
H         6.83755803567467    6.03325665497763    7.20445961942749
H         8.08425912946942    4.95648768675843    7.82948535988234
H         8.16782355807375    5.53331613902128    6.15859715966151
H         7.44150599585827    7.36039749245758   -2.26170833103529
H         5.88970234437085    7.89360909537044   -4.12036014377266
H         3.48471088688080    8.18829924326353   -3.66109824681298
H         2.62629226976140    7.94933835354712   -1.36169542286571
H         4.17978254799156    7.41415536504096    0.48906888226536
H         6.91332638714995    9.74375618006242   -0.28076700857279
H         8.60058315622396   11.53517048044552   -0.43372327504486
H        10.96536695468420   11.05266579272075    0.07191061840220
H        11.64337512430246    8.77889321700858    0.75099011404568
H         9.95342672350853    6.98617998057838    0.91485805756530
H         2.90801432460637    5.04943295543857    4.01890554608619
H         0.53011049624514    5.57957304606943    3.63860623046577
H        -0.21716267792469    7.93032027596390    3.57792827572600
H         1.41675114296275    9.75229719463698    3.88823450666564
H         3.79609902005554    9.22346416259155    4.27481857938527
H         4.07461677824032    7.38530586293840    6.87102359938517
H         4.67336272480831    8.94722156942286    8.70016597123557
H         6.67449300670938   10.37267767717388    8.48807532111327
H         8.08180976163936   10.23575704845915    6.46831602978399
H         7.48122730433666    8.67001872717855    4.64704005526585

