88
CSD_code = DERMET | q = 0 | S = 0 | Stoichiometry = C38H46N2NiS | MND = 7
Ni        6.04978780843441    0.98021670145032    6.42173942989394
S         7.02679405621341   -0.62085327291666    5.20705818664341
N         3.57474661511809   -0.21649220943949    5.26855872338138
C         4.36217710296766    0.08132614172509    6.33068116407199
N         3.76281979434953   -0.52500929047217    7.38385363030313
C         2.51239970973016   -0.98970811034600    5.65723447178389
H         1.76868296128975   -1.32181149406159    4.96337533651143
C         2.63319096587218   -1.18772139493993    6.98727540064432
H         2.03090043528651   -1.74684920762967    7.67271164609369
C         3.76789034769076    0.16045731496325    3.90774212650410
C         3.56361919172486    1.49505709699711    3.53455959270724
C         3.68658217732852    1.82389830182669    2.19324937563412
H         3.52062268954040    2.83823702799901    1.87010607848250
C         4.02571044034772    0.86544779961676    1.25670638468432
H         4.12986247779527    1.14227040387199    0.21834090981482
C         4.22479449941692   -0.44282594157972    1.64355260875155
H         4.48216819197093   -1.18048430150643    0.90047232767131
C         4.08812211821511   -0.82664732138584    2.97210225545882
C         4.23231560455876   -2.28477494712778    3.34432615580689
H         4.22196344921805   -2.38367249398420    4.43309785377822
C         3.05453748988700   -3.07891122327697    2.76752277575654
H         2.10086216258718   -2.66644385207609    3.09039180524012
H         3.10829495650365   -4.11535244197115    3.09264602847472
H         3.07864499811986   -3.05807557667610    1.68077928602244
C         5.55238391921526   -2.87932087068241    2.85471861787070
H         5.63548155721265   -2.83569409570763    1.77265667043933
H         5.61786674661079   -3.92083018131841    3.16131447583756
H         6.38514435833088   -2.33868216416455    3.29137096316067
C         3.19045940776140    2.53065192012454    4.57338554908147
H         3.76322287648205    2.30773501486964    5.48486539670230
C         3.53940630295025    3.95947081940461    4.16128968829992
H         4.56685219751905    4.01849057757650    3.81119423395018
H         3.43189722587700    4.62111607035378    5.01857149121945
H         2.87802827195542    4.32042462169093    3.37677374346061
C         1.69534439638204    2.43250028123776    4.89494282034705
H         1.42461464529932    3.17166542058426    5.64607324111064
H         1.43394484847825    1.44708694594852    5.27413530993942
H         1.10694623803944    2.62108190623391    3.99886416375570
C         4.20880135065949   -0.52948573089480    8.73649568945911
C         3.59410266112307    0.33183263969170    9.65105263938962
C         3.98554587993749    0.25737344339713   10.98085352855236
H         3.52556337870473    0.90323696530505   11.71191543442945
C         4.96278890653145   -0.63430461538497   11.38170540388383
H         5.25681655833108   -0.67644774715172   12.42020965326372
C         5.56247498982155   -1.47104297224109   10.46112304681116
H         6.31974516325062   -2.16450821143236   10.79056105650059
C         5.19730228428064   -1.43896813447981    9.12103568145706
C         5.81080075182559   -2.40426344965513    8.13573852440672
H         5.57533684066119   -2.08135878828137    7.11750104571216
C         5.21622701338062   -3.79844138482240    8.35468609369524
H         5.44488643594242   -4.15966634373125    9.35495124916411
H         5.63096450053829   -4.49566384766738    7.63133154499706
H         4.13435564947887   -3.78094054983612    8.23591937708117
C         7.33418831442253   -2.43489534516515    8.23748478233211
H         7.72487685310322   -1.42981432166449    8.10493615404286
H         7.73712051103279   -3.05732479668493    7.44319716526302
H         7.67239851852557   -2.82880188221229    9.19232742897653
C         2.52612994903788    1.31101327079383    9.21840239548275
H         2.59144031734099    1.44195923104084    8.13311985387023
C         1.13752670450567    0.76205878631062    9.56078550143210
H         0.94742664018987   -0.17706469344421    9.04750147938849
H         0.37084959886835    1.47476399017428    9.26498022082006
H         1.05443890623772    0.58938776670399   10.63159233254347
C         2.71006969786139    2.68532099065349    9.86666434326487
H         2.07739206874425    3.41613322378094    9.36691825808575
H         3.74381800653882    3.01260224013460    9.79224263054015
H         2.43094716058052    2.66670753526418   10.91706354741775
C         7.72974947223115    2.20986994306489    6.59198496270232
H         8.61725178141412    2.24754500105325    5.97547343886863
C         6.60744207033017    3.04970075128340    6.46628752196414
H         6.45811274965499    3.81688128886635    5.72347333328328
C         5.74407314218064    2.73760572709236    7.53280955901815
H         4.83405339712359    3.26831035572404    7.77157429759442
C         6.42798564195250    1.83910419765444    8.42882366048877
H         6.08883678733396    1.56224908086408    9.41349730622861
C         7.64257744934925    1.51813314978354    7.85206512859864
H         8.43563775886822    0.93491932419312    8.29235239744761
C         7.40966364904784    0.17456977960407    3.70407813249526
C         6.82868003012038    1.39517854736492    3.37553464826985
H         6.14071690381386    1.84605377147328    4.09100390475741
C         7.11521279216945    2.00622182834467    2.17327105085146
H         6.65922660215843    2.95634782715583    1.93218010683193
C         7.98135339621025    1.40424975266348    1.27493895746322
H         8.20588305300158    1.88092311920069    0.33197770428631
C         8.56207064499429    0.18768200837917    1.59710503336033
H         9.24334852565122   -0.28511852433367    0.90351624169202
C         8.28499267831399   -0.42707892561954    2.80155558636922
H         8.74521262634850   -1.37001924749549    3.05726104590387

