83
CSD_code = DERMAR | q = 0 | S = 0 | Stoichiometry = C35H40Cl2NO3PRu | MND = 6
Ru        2.29428650805923   11.98034906746984   11.45447511403058
Cl        0.44663745917456   13.35610993938232   11.00153868526219
Cl        1.41112741340068   11.38934217302623   13.44236685344516
P         4.19846425319310   10.73810060877871   11.95419199785098
O         3.15496955978861   13.71700551770746   12.35430973585807
O         3.44111844923249   13.32466421712174   10.24978280738861
O        -2.51740160684925    6.62332310452193   12.31728948848867
N         1.63645722125329   10.80568786933231   10.34678420847743
C         3.92506738104062    9.31496000890220   13.04251085737292
C         5.41628126809098   11.77176617472942   12.80502761910371
C         3.54693610578783   14.10649466132367   11.23776845020010
C         6.61923619639716   12.15865266382593   12.22579838804970
H         6.90395726041673   11.77109541313506   11.25692705413748
C         2.53013941864958    7.43584869758506   13.58283750548854
H         1.64127262629894    6.84996802454284   13.40283752121606
C         6.37429767366461    8.28303368115883    9.50252148181240
H         6.84553700075902    7.31246867752125    9.55563394415169
C         5.03949348785099   12.28461218944532   14.04708483468151
H         4.08625910830194   11.99601342783802   14.47374238622828
C         7.44703887060409   13.04451781225601   12.89534045375478
H         8.38218532581863   13.34719884491588   12.44632978287459
C         7.07539561581089   13.54878193830232   14.13050808044797
H         7.72071321289753   14.24749157811866   14.64252755770813
C         5.87209921841527   13.16695215919640   14.70669287984104
H         5.57915223787947   13.56988543675375   15.66465300853664
C        -2.63103223392086    5.25713111240379   12.00144983252224
H        -3.37659255071635    4.85744933098945   12.68685306950665
H        -2.97160152740663    5.10902454126041   10.97154583555132
H        -1.68390813397699    4.72824541692339   12.15108908437874
C         1.01050004508550   10.31136804400265    8.06345032473949
C         0.01864000576170    9.15055060538410   10.22790854714480
C        -0.33176203153601    9.95942229304655    7.42437085510986
H        -1.12626578069854   10.55467331488568    7.86776291329680
H        -0.29238467827793   10.17658566139377    6.35909903364239
H        -0.57574968537787    8.90844837340954    7.55310434644401
C         3.40394331055371    7.08639275218088   14.60105481306220
H         3.19833925040377    6.22330736109436   15.21674083804767
C        -1.66334672102445    7.39400693264386   11.59569414592456
C         0.93426031114278   10.12542684552059    9.58183544502409
C         5.09053904745529   10.02771254130881   10.53994887738120
C         4.15498229188080   15.48349700345291   11.03872339371052
C         5.43076154552687   15.33727727765266   10.20674662811938
H         5.84983907207435   16.31839256898306    9.99416724717307
H         6.17162315882023   14.74962191728015   10.74734723656115
H         5.20987439797191   14.83781600034444    9.26607756280731
C         1.33399852850392   11.78508433704565    7.79783878405538
H         0.55128209806269   12.42181003558754    8.20548974489224
H         2.27336971248397   12.06571108440361    8.27578661450489
H         1.41570606381883   11.96687477336580    6.72846983214524
C         5.84003663007751   10.27007444920308    8.26652025252148
H         5.89214712352219   10.84848631907824    7.35580842456533
C        -0.85238021508051    6.93116343646406   10.56394632149315
H        -0.85532610648257    5.89132399979969   10.27646693515251
C         4.53737985775293    7.84674807726766   14.83685243588726
H         5.21619767932862    7.57414223361945   15.63167404982562
C         4.80338147795517    8.96107354663318   14.06000603738140
H         5.68630664477811    9.55737588057430   14.24559144849032
C        -0.01556522356228    7.80528518669105    9.89110786464617
H         0.62542804778895    7.41662763134324    9.11478491888539
C         2.13322452095148    9.42809497739466    7.50877491718231
H         1.90899724494995    8.37185743768032    7.63312441224725
H         2.25873686427509    9.62530849537257    6.44617038643961
H         3.07134707514832    9.64403530012047    8.01598659513570
C         5.15909327316283   10.76960976669796    9.36229495632065
H         4.67365190803268   11.73609244077804    9.31470698531076
C         2.78813268960591    8.54703046168015   12.80378135426250
H         2.10178005984244    8.84310746414848   12.01876485328243
C         5.70005753199414    8.77867416699835   10.60453534259867
H         5.64305108326029    8.19766573306422   11.51380363767710
C        -1.61447817888748    8.74654870254035   11.94562545641829
H        -2.23971540610162    9.09142906263652   12.75287718633688
C        -0.78063711089811    9.61178159820173   11.27672688984128
H        -0.74749729287316   10.65852686576329   11.54560831318898
C         6.44729290090238    9.02602196149859    8.33535015394684
H         6.97472292179048    8.63432382135080    7.47832722057600
C         4.45455858216883   16.11090501789526   12.39716314682160
H         4.83335089134520   17.12205292365083   12.26514821738836
H         3.55115907122152   16.14801719884388   13.00082196866972
H         5.19690817924558   15.52217846296771   12.93342161722827
C         3.10827990529551   16.30573516770299   10.27686923264155
H         3.48113544677352   17.31228920562388   10.09756320844468
H         2.88248285536816   15.83482064929051    9.32232811446105
H         2.18602230485431   16.36883834607706   10.85073144265272

