90
CSD_code = DERMIX | q = 0 | S = 0 | Stoichiometry = C38H48N2NiS | MND = 7
Ni        2.57434654488436    7.52617369860110    6.48767988737828
S         3.63582066503055    9.31128866939688    5.69310514150586
N         2.19003871376552    8.53725936894984    9.13115695381687
C         3.06565612205845    8.00965550536188    8.26682215606293
N         4.28450494529410    8.09112590573136    8.81870886372753
C         2.81875515604356    9.10857498736971   10.31700069328214
H         2.33448742302565    8.74522406175725   11.22516210318988
H         2.73111618283490   10.20019294376193   10.29007438171733
C         4.26142026298040    8.64005194184297   10.17402157017832
H         4.97825697369975    9.45348864706800   10.27599264296125
H         4.52264309734823    7.85591796129065   10.89407316856869
C         0.77725881170032    8.63348877932507    8.98659632905299
C        -0.02516754420812    7.67502083777524    9.61859104221944
C        -1.40372769745540    7.79305842560993    9.50858954119322
H        -2.04370100208262    7.06664432054693    9.98563394325153
C        -1.97011188958501    8.83004246527473    8.79201131372089
H        -3.04466464688836    8.90199450634834    8.70829157022320
C        -1.16555996894487    9.78068059623275    8.19638099468677
H        -1.62153466988364   10.59727526320856    7.65889532360411
C         0.21902742658911    9.70862714079045    8.28875764589235
C         1.07256936063289   10.81030977919264    7.70845005153262
H         2.12327795404647   10.50905700427364    7.74593885294367
C         0.89084701886529   12.08432444316860    8.54021240723043
H        -0.12858616696214   12.45395373821305    8.45486074538151
H         1.56802978814959   12.85812721131072    8.18669666248772
H         1.09463872720600   11.89853618213102    9.59377646676112
C         0.74473078827217   11.07699432761563    6.24095763520858
H        -0.27475355084830   11.43070955337428    6.11043295628048
H         0.88396876490063   10.16398051394154    5.66914196742748
H         1.42654128687590   11.82548958634742    5.84616711998186
C         0.57101458364580    6.54614006495945   10.42993549659492
H         1.65440592473978    6.53630470176510   10.27686917610124
C         0.28602210248098    6.76468217482062   11.91977788206378
H         0.63696238225207    7.74012229712160   12.25162582133911
H         0.78001477795399    5.99859509337568   12.51383868107208
H        -0.78274942818022    6.71198311064485   12.11283648189230
C         0.03343842956769    5.18129442206579    9.99589965354255
H        -1.02182627860930    5.07781678303629   10.23469579702842
H         0.57467428392974    4.38979104660346   10.51080584154915
H         0.15630280442985    5.04574090810468    8.92566009468669
C         5.48926242536466    7.51371998753204    8.32528975019280
C         5.64065158975676    6.11982133669299    8.34795727985732
C         6.83383381569098    5.57839610221465    7.88859366217053
H         6.97590880382400    4.50942269524664    7.90375382391405
C         7.84733940790250    6.38763611271628    7.41524946991837
H         8.76459568730149    5.94773207501736    7.05275115355648
C         7.69324759248853    7.75879015960349    7.42001489602273
H         8.49730337330229    8.38156138554373    7.06270933999109
C         6.52250020095893    8.34720033065070    7.87896400077517
C         6.42209520954092    9.85388079401827    7.93794980065882
H         5.37401227496033   10.12759510754857    8.08530861366025
C         7.26993589226906   10.37301945293591    9.10727411689921
H         7.03592084071780    9.86198472952965   10.03949597633399
H         7.10877482749245   11.44011050083189    9.24385402693552
H         8.32535724314815   10.21043996815422    8.90038699773850
C         6.88486323551925   10.53114335525907    6.64771568086397
H         7.95481786961125   10.41590017118301    6.49561659879209
H         6.66368294631704   11.59466608591867    6.69899986560264
H         6.36551596276417   10.11446415963495    5.79186189889104
C         4.57383993548914    5.20612136140856    8.91052540362932
H         3.61938488896157    5.74298332384471    8.91879387814431
C         4.93575855614473    4.81630172569993   10.34771248356439
H         5.87057891771769    4.25994873317469   10.36203954515486
H         4.15521070925820    4.19061747714980   10.77588103262068
H         5.05876755156973    5.69481270730815   10.97787287831374
C         4.37766826000551    3.94635719042387    8.06636776957513
H         4.25336102421092    4.20865759264185    7.01974560496091
H         3.48760733871188    3.41527383179407    8.39803325239155
H         5.22166362604143    3.26747659791139    8.15847738938385
C         1.59731214338077    5.66379387348191    6.50816349164410
H         1.62655105303338    4.85940350925066    7.22749083883644
C         0.53797612106491    6.64155961892767    6.41458193792874
H        -0.30790524630317    6.71010253229725    7.07837631916261
C         0.72703300486759    7.36021059259501    5.24939475003492
H         0.06411384622332    8.10092792510766    4.83244018839695
C         1.91670962957340    6.85915916880297    4.61692591082907
H         2.25312213795626    7.14515848351957    3.62960420315631
C         2.36865756398748    5.73377144502018    5.33795599122245
H         3.12735376031680    5.03762319949040    5.01692358933234
C         4.80957590169849    8.55447865791439    4.64435049582343
C         5.29663978960731    9.24123419857279    3.53353960192447
H         4.91597836373124   10.22795472758024    3.31513966573823
C         6.25556833604209    8.65733278229731    2.72918748329077
H         6.62694043850911    9.19478239080791    1.86807676556658
C         6.73788953056027    7.38964995305945    3.01472697700779
H         7.48513507683824    6.93729842397765    2.37934802650293
C         6.25335403504575    6.70489369648686    4.11832815520858
H         6.62496862730868    5.71678807314082    4.35136488567418
C         5.30107659728763    7.28337327519986    4.93081402322259
H         4.91680082274191    6.76402945270643    5.80814545163503

