60
CSD_code = DERPUM | q = 1 | S = 0 | Stoichiometry = C24H29BBrFeN2O2(1+) | MND = 8
Fe        6.27409811566188    1.49286716193170    3.25720327569669
C         6.69557991979366    3.05736089400495    2.66616536560327
O         6.89389568303470    4.07538339606174    2.16225015690372
C         5.43074167609566    1.38051525872909    1.74509847671661
O         5.01590882860375    1.35611833306639    0.67788596938496
B         4.67692604809452    2.43678420494229    4.17571207128289
Br        3.35096037719813    0.98287095858841    4.34232176149755
N         4.05600633748385    3.58237140050501    3.35554559056881
C         3.25473826707584    3.30535481645752    2.30090527223693
H         2.98848354300281    2.27337988975422    2.14208013612551
C         2.77417817808609    4.26576662429211    1.45056409255770
H         2.14729027819627    3.96502712297032    0.62653279147981
C         3.08676627864150    5.61380918250870    1.64628556094036
C         3.87176053772582    5.89679892323475    2.76207830665171
H         4.13530528633621    6.91441387072995    3.00242629901638
C         4.32526542942192    4.88550474253316    3.57456116990326
H         4.92076337107929    5.13049955292861    4.43897268475808
C         2.59518898960886    6.66734531056667    0.72451486067001
H         2.93710479961518    7.65218723308051    1.02855759146859
H         1.50614936596668    6.66304232685776    0.69652737547707
H         2.94265470434791    6.46882595653290   -0.28862001946776
N         5.12491180966173    2.92587290357248    5.56561484647827
C         4.48612288347190    2.60047955825983    6.70729599529114
H         3.60966650249688    1.97776570642613    6.62738688848195
C         4.89453037764077    3.04074473878984    7.94476319096377
H         4.33817423095559    2.73200360122183    8.81535361216828
C         5.99405726194507    3.88810346809797    8.07253438501198
C         6.64836594636057    4.22288707321442    6.88206929616918
H         7.51665694758713    4.86226566974731    6.89941635150292
C         6.20928205335987    3.72543749068590    5.68191381369986
H         6.75170700050179    3.92214461517199    4.77105584633749
C         6.46473269594364    4.37688753977166    9.39197324070725
H         5.63746114887076    4.47023398757544   10.09078708860482
H         6.97327405611489    5.33287603204734    9.29855136707206
H         7.17375753142158    3.66327404050016    9.81476121202814
C         7.37020265116975   -0.25079962262284    2.73993604125894
C         8.25616080164343    0.71908503879223    3.28389490641343
C         7.86283608944315    0.96468551332231    4.63543360409811
C         6.78476031689712    0.08044404301446    4.94796790827072
C         6.44642403779673   -0.63072742344442    3.76918403959119
C         7.50621791741520   -0.91274981480021    1.40959818162221
H         8.19648011057911   -1.75353979625009    1.48890231788909
H         7.89757350215649   -0.22359743226257    0.66551119547982
H         6.55070005480808   -1.29436711691008    1.06062123413198
C         9.45946766004856    1.28610510734847    2.60759015095384
H        10.31572212752823    0.62905192834535    2.76525213466612
H         9.70889903148452    2.26677174467622    3.00384079838738
H         9.29802720046484    1.37698510130167    1.53665264851932
C         8.69537632353948    1.72261953474778    5.62148622542738
H         9.58286983122205    1.13808193631602    5.86731731194572
H         8.15491513524529    1.91126339581597    6.54514712250589
H         9.02931985038290    2.67342642633519    5.21236098118321
C         6.21362054464512   -0.17944981895249    6.30041374758155
H         6.67470518288275   -1.07763726238601    6.71341271641366
H         5.14136526292530   -0.35762562516399    6.25587464038805
H         6.40905629596427    0.64020380595545    6.98857481591972
C         5.48450420341177   -1.76828175566166    3.67777464731606
H         6.01044088675412   -2.70662278072614    3.85669861575258
H         5.03091881710535   -1.81968759510509    2.69177588907953
H         4.68996970308124   -1.68034111704147    4.41243220122129

