71
CSD_code = DERYUV | q = 0 | S = 0 | Stoichiometry = C34H28Br2MoN6 | MND = 6
Mo       -0.05066194906391   -0.47845990705885    3.96062865617086
Br        1.51303414576996    0.91845547306852    5.55767232041056
Br       -1.07534502028136   -2.17976249283962    2.22988250941562
N         1.54625973884704   -0.53526876583704    2.56361357856206
N         1.23221299175998   -2.03266546224640    4.62775039160090
N        -1.27151211643038   -0.88190848980384    5.18191058958333
N        -2.25002907331027   -1.04897267723482    6.00160092424194
N        -0.71587901454258    0.98774878063024    3.21780458972590
N        -1.31232037241203    2.04717497302253    2.79421118074787
C         1.60578579647643    0.22299643245986    1.46477126207572
C         2.64201955705584    0.18061598877984    0.56023565508721
C         3.69945594330887   -0.69789232668834    0.79073798489545
C         3.63577909330448   -1.51918331886418    1.89345690246700
C         2.54038705472964   -1.43347640786052    2.76016463698061
C         2.36169144082394   -2.28004937796877    3.92260181385497
C         3.26485472526595   -3.27754978180232    4.30659009257856
C         3.02586531389980   -4.01350586958994    5.44494702469218
C         1.88984358044343   -3.71661624941852    6.19601100241468
C         1.03748248231790   -2.73279642075212    5.74930733777263
C        -2.47249796827247   -2.31359064618302    6.59320165615593
C        -2.25916778329890   -3.46555333482365    5.83881503945512
C        -2.41740693084580   -4.70803466000899    6.42239516901621
C        -2.78882392469994   -4.81222441108635    7.75310306048747
C        -3.00045804048795   -3.66522446128362    8.50269082427409
C        -2.84121876715470   -2.41662571081357    7.93283605281857
C        -3.09801643288922    0.03637307570983    6.30153532493041
C        -4.44180689859710   -0.17095886361023    6.60394629721684
C        -5.25671550134975    0.91241603710142    6.86831667609404
C        -4.74837110898303    2.20083007631839    6.83040418774148
C        -3.41399664907379    2.40564403520258    6.52074553753643
C        -2.58833504861910    1.33204658515147    6.25239128000188
C        -2.68869413042098    2.21595150045710    3.04874414388906
C        -3.50095765300456    1.09031116692736    3.16771924068174
C        -4.84603309383139    1.23946601363538    3.44125535104824
C        -5.38980165724985    2.50265582159876    3.60567359413962
C        -4.57877539999359    3.62092658152636    3.49818619698618
C        -3.23182777488760    3.48659781580465    3.22349443254289
C        -0.59041943630093    3.03145719722870    2.08153856962419
C        -1.15852979250960    3.67590464755400    0.98456849484056
C        -0.41354159684754    4.59620352097402    0.27241607484381
C         0.89468723978615    4.87507308394016    0.63702163590672
C         1.46018508199931    4.22904084918003    1.72444449361608
C         0.72464042025768    3.31045552337728    2.44845918287873
H         0.77230438211204    0.89481987079228    1.30331505041249
H         2.62573250397058    0.82402522227437   -0.30405273869075
H         4.53902399186154   -0.74406436375046    0.11517658779200
H         4.42493576866614   -2.22612967777901    2.08818507017300
H         4.14448557093402   -3.46700726917807    3.71429196712683
H         3.70724431620708   -4.79048508515593    5.75382829465252
H         1.66855807845311   -4.24292086574395    7.10996353379858
H         0.15139819333553   -2.48379226769817    6.31924651026752
H        -1.98498556854356   -3.37810704081028    4.79629277026129
H        -2.25759700919425   -5.59663474787354    5.83068656512136
H        -2.91424351865197   -5.78394682848834    8.20609376362569
H        -3.28360319501368   -3.74310749770409    9.54183678720444
H        -2.98914767804011   -1.52168971169533    8.51882546468843
H        -4.84445032402732   -1.17290923753017    6.61724079918549
H        -6.29906499649888    0.74887050618791    7.09861016966559
H        -5.39097074434817    3.04209968109410    7.04018812007381
H        -3.01150165218408    3.40661251882028    6.49185019467861
H        -1.54241571074284    1.48266554577034    6.01813120253970
H        -3.06975748903876    0.10723271143935    3.02936506845636
H        -5.47268902841773    0.36450115638258    3.52185648145264
H        -6.44172983088132    2.61597321524114    3.81846415708868
H        -4.99641297918388    4.60714910481094    3.63680809753583
H        -2.59854657415638    4.35886956703313    3.15802724853040
H        -2.17181452557157    3.44441968579884    0.69161335818868
H        -0.85517105596661    5.09310401462564   -0.57854322255923
H         1.47021253011131    5.59471954834347    0.07483800661834
H         2.47603224255310    4.44565309890438    2.01842378825063
H         1.15573283127715    2.81565360186184    3.30803593386458

