78
CSD_code = DESDAJ | q = 0 | S = 0 | Stoichiometry = C28H45P3PdS | MND = 5
Pd       -0.12357411198522    0.87816029039534   12.65926057405543
C        -2.15918627770560    1.26644632589008   12.67068906418532
S        -1.58666629638929    2.53542400884580   13.68485631361785
P        -0.14597238313831    2.41817644387650   10.55861024772459
P        -0.82232244780720   -1.34857523774483   12.47293164258040
P         2.02952187409601    1.22467997456163   13.51452830490429
C        -1.96324865226632    2.28436397455675   10.36078409723133
C        -2.73069920049770    1.65971153675302   11.35542315791692
C        -4.09038914662442    1.45751196678613   11.10397985673340
H        -4.70314526230022    0.96633851479650   11.84556365011719
C        -4.67804638365865    1.88465316924860    9.93012671372628
H        -5.73318461767571    1.71597448941103    9.76978952940792
C        -3.92105126760048    2.53148425532312    8.96833515650068
H        -4.37726178008041    2.87662435150013    8.05189729011250
C        -2.57109814849027    2.72061941248175    9.18891743774934
H        -1.97603596446663    3.21122453736027    8.43323826082014
C        -2.52379357370381   -1.16154192697208   13.11459659630286
C        -2.90823028571035    0.16450226784213   13.33990329485026
C        -4.04244502644644    0.42779043475614   14.10186117605150
H        -4.30067445213711    1.45446555203501   14.32204412578262
C        -4.82440930498942   -0.61374238511589   14.56621107247540
H        -5.70081651827965   -0.40302947682888   15.16173370644741
C        -4.50467350712669   -1.92324738816592   14.24186083252685
H        -5.14373837488206   -2.73219887634445   14.56605708889179
C        -3.35100287834081   -2.19880514373564   13.52995917432652
H        -3.10011806279894   -3.22285544233727   13.29555145223595
C         2.93121676644650    0.12296299820634   14.68185468371955
H         3.87339501690643    0.58727827302175   14.97101360171146
H         3.13354445504603   -0.83432980517029   14.20470893167665
H         2.32530134195277   -0.04673643210136   15.56946977436587
C         0.08688382946146    4.24850350783831   10.23750879865750
H        -0.16065087473509    4.47665216507720    9.19634446528699
C         3.39900422271074    1.59810687498866   12.34966195180696
H         4.26084598691483    1.99170588625815   12.88796935788041
H         3.05202489589748    2.32866602613706   11.62158700088298
H         3.68233778689920    0.68739250470982   11.82426365170414
C         2.00836306592053    2.76598919118610   14.51024605066009
H         3.00506236292366    3.01911287731453   14.87296721617980
H         1.32737557621348    2.62875990548931   15.35093906911448
H         1.61499333957228    3.57536161616501   13.89548480673133
C         0.39121774746331    1.54692630162070    8.96484625028454
H        -0.46811192624525    0.91467332106491    8.70138393798533
C        -0.83211155503633    5.03287377350561   11.16856173185172
H        -0.60494184122842    6.09700208369385   11.11632243787080
H        -0.70218219008873    4.69942013287069   12.19794546664981
H        -1.87704909413741    4.88894536077530   10.90067879008274
C         1.54412308030284    4.60874630778012   10.51028972189147
H         1.72325114007355    5.66357528057172   10.30514483073086
H         2.22354761441677    4.02077848827077    9.89436552123521
H         1.77785046253639    4.41928433204927   11.55732462374918
C         1.55956171826259    0.63339970115190    9.33676216060180
H         1.71493847795342   -0.13467109373425    8.57972653442147
H         1.35555894884426    0.15148101610981   10.30134179541218
H         2.47818865038113    1.20955793368128    9.43162370553418
C        -1.04095731339510   -2.59046563015848   11.10363990747684
H        -1.57853099243417   -3.46149846443240   11.49318457610292
C         0.75375150787772    2.40000711355972    7.75565337339381
H         1.06277338536211    1.74504085557824    6.94078067790460
H         1.58004384496223    3.07154330558565    7.97531202542992
H        -0.08775320242510    2.98945561407376    7.40135926933789
C        -0.00703045595179   -2.26268621272294   13.89382404188613
H         1.06529581585347   -2.18916095862646   13.65788427878913
C        -0.28467836140260   -1.44441445483409   15.15656655202999
H         0.39991981478260   -1.72213374719449   15.95671881759598
H        -1.30402255459473   -1.61218734113299   15.50248806636012
H        -0.17114329383895   -0.36787975250736   14.94923637795188
C        -0.35715980720630   -3.73031375808905   14.11062739443721
H         0.29069258660211   -4.13910696612749   14.88599028482770
H        -0.21427655590351   -4.32144114034555   13.20923676163172
H        -1.38406683855927   -3.84119497452597   14.44771661994762
C         0.31542700441606   -3.01283121636597   10.55277004485622
H         0.19079344573278   -3.70503794227892    9.72088854966600
H         0.91900640353594   -3.49872223820950   11.31729005128917
H         0.85800537574820   -2.13931499133699   10.19560926476801
C        -1.88252312510811   -1.89902930100212   10.03482585609085
H        -1.96986764905831   -2.51855132133377    9.14366864155490
H        -1.41723811416639   -0.95049842301354    9.75816989189706
H        -2.88283787547035   -1.68315221220950   10.40961198883719

