67
CSD_code = DESGEO | q = 0 | S = 0 | Stoichiometry = C26H32Cl2N4NiO2 | MND = 6
Ni        3.42567140212822   -6.16344520795118    6.12489168098346
Cl        1.53458206977239   -6.71652135126953    7.01222265203116
O         2.94495534905507   -6.96467705961762    3.85434978077098
H         3.88222430374599   -6.95971851917526    3.61636836845239
H         2.48024496182301   -6.43062373820779    3.20689494176296
N         2.66785223894291   -4.38808675013378    5.59565365170104
H         3.27155298465327   -4.10968503011531    4.82003977193520
H         1.72146541171909   -4.60492201480624    5.27998893756522
C         1.54770818850906   -2.28462319891195    8.42697362728558
H         0.67314946923987   -2.16738842723250    9.05112465278764
N         6.45214272651068   -2.13231473666144   13.71311067738374
H         7.36296956189141   -1.70283781857712   13.68600090717685
H         6.46405062978059   -3.11307161306436   13.94269421887853
C         2.65740764513193   -3.39873502036686    6.61299226225862
C         3.77688218777895   -2.59831723008195    6.81904316273735
H         4.65340559987249   -2.74184436798893    6.20519826024263
C         2.66092425555372   -1.48434825468746    8.64242169729133
C         1.53811925892603   -3.23190366319412    7.41990727085730
H         0.67431590871070   -3.86439347665031    7.27503153679721
C         3.77469010015741   -1.65730594059941    7.82721936927290
H         4.65090701107790   -1.04808498042159    7.99294547837151
C         3.70380210122419   -0.90784689098967   10.80263021105871
C         2.69954976847071   -0.48032462179394    9.76232557335115
H         2.97721122243867    0.50109535139519    9.37100084775856
H         1.70913836046298   -0.39887971630377   10.21726764433675
C         5.73649468407591   -0.54214743616410   12.04492803693042
H         6.59452842328185    0.07594276883521   12.26938284895982
C         3.54512062142092   -2.11821686196765   11.46716839183338
H         2.69211362421687   -2.74057917347611   11.23751832644784
C         4.46147837377509   -2.53824255167665   12.40828052076123
H         4.32355590968452   -3.48116298611952   12.91912503143957
C         5.57302710364701   -1.75288829682694   12.71513701760809
C         4.81360990877442   -0.13158563277771   11.10285694267722
H         4.96199769222399    0.81128327682356   10.59481915187523
Cl        5.31585066108734   -5.61180837165873    5.23583529015513
O         3.89715973469775   -5.36283977020234    8.39623367263481
H         2.96016295661648   -5.38705440028528    8.63447139443770
H         4.37464139142223   -5.88251517905004    9.04586036377618
N         4.18454437702358   -7.93833608782856    6.65512309293889
H         3.58079253261039   -8.21671665880720    7.43069247304885
H         5.13089981182573   -7.72185416102990    6.97103450841458
C         5.30293593748474  -10.04193250571665    3.82296988055770
H         6.17711492451257  -10.15937075769299    3.19831040478575
N         0.39527590170899  -10.19965927060077   -1.46021773815511
H        -0.51506235347604  -10.63014285374039   -1.43282763373559
H         0.38220100330036   -9.21881791941543   -1.68936194858075
C         4.19457258852475   -8.92758053437237    5.63763581745130
C         3.07462842192968   -9.72746940558400    5.43197777142814
H         2.19844869977008   -9.58338573347806    6.04614718615333
C         4.18957140191102  -10.84225971540778    3.60849499202141
C         5.31330374664519   -9.09443160885190    4.82991545258209
H         6.17735479989777   -8.46212464430698    4.97412801183629
C         3.07608449630185  -10.66862171171345    4.42395828999258
H         2.19959239395954  -11.27753252168020    4.25868982398177
C         3.14583546787920  -11.42146916516238    1.44925581777685
C         4.15045279787199  -11.84758074743629    2.48977669997116
H         3.87277166820612  -12.82839600488134    2.88263603873833
H         5.14071827646264  -11.92987984515560    2.03464763068373
C         1.11354036366941  -11.78960497677077    0.20705713409805
H         0.25625556229008  -12.40873955398792   -0.01737671440792
C         3.30314252883308  -10.21099884232083    0.78456391729721
H         4.15560944223302   -9.58778771974174    1.01393931249972
C         2.38616325032272   -9.79198364953059   -0.15636916217367
H         2.52296230068154   -8.84892545518383   -0.66724365320193
C         1.27532737903698  -10.57849212991846   -0.46288060775325
C         2.03703650834719  -12.19913977006046    1.14898110914342
H         1.88986196766317  -13.14224715758495    1.65692792004344

