62
CSD_code = DESGUD | q = 0 | S = 0 | Stoichiometry = C28H28NP2S2Tc | MND = 5
Tc       10.33240065178099    1.85188939393397   17.48156104194517
S        11.01465647967350    2.81881966721634   19.56502369914587
S         9.62213170661644   -0.21744539524225   16.49964308727530
P         8.28484021129805    2.06199459010778   18.60826969371080
P        12.35057810280237    0.66518613525685   17.32308237427582
N        10.36628833517410    3.05553824318135   16.28035272035868
C         8.30509009623520    3.35355069381666   19.94685127107076
H         8.09504269156380    2.87913748490816   20.91048705869214
H         7.52104475226234    4.08809248013769   19.73692007608510
C         9.67828865008243    4.01396177623265   19.95157561875136
H         9.74192270490813    4.79450965819419   19.19282626408573
H         9.92253301501901    4.43569577658980   20.92739676817706
C        12.33492272054796   -0.65004835325307   16.00866811278442
H        12.53233117298634   -1.62345453690337   16.46833583927644
H        13.13089920823945   -0.43294120917137   15.28908778143672
C        10.97114263153603   -0.63228222712632   15.32838704919528
H        10.93299068534034    0.12492571006069   14.54481004343307
H        10.71518138509549   -1.60463912671093   14.90551737735616
C         8.06948798414514    0.50077902616051   19.50592125529252
C         8.83116974791853    0.24060431750365   20.64243449149684
H         9.50406141535273    0.99384648161706   21.03433171605033
C         8.75032861432461   -0.99267110387071   21.26189581776722
H         9.33947376471635   -1.18558960537333   22.14680747179610
C         7.92656166277543   -1.97721824612614   20.74188958103029
H         7.86659459159107   -2.94141768884676   21.22563261259391
C         7.18912848446768   -1.73090719479981   19.59437258546164
H         6.55998610679244   -2.50420454049554   19.17874710152209
C         7.26136124439444   -0.49936675974866   18.97150633240503
H         6.70404903579594   -0.30858228197469   18.06501346321317
C         6.69266845742393    2.32647390155878   17.78687825193488
C         6.70527440141136    2.61068293520751   16.42621807591409
H         7.65985990921058    2.65009501424421   15.91237685332351
C         5.51060819771727    2.83534963973986   15.76419306003410
H         5.51390329360584    3.05537628460065   14.70726342800197
C         4.31260457530970    2.77708293950179   16.45762231688011
H         3.38026134902304    2.95031343361539   15.94042874404639
C         4.30199026366936    2.49704248892882   17.81617770511873
H         3.36493731639850    2.45300688419401   18.35225087964497
C         5.48988992203018    2.27236061348894   18.48566936267566
H         5.49063846530893    2.04743483212897   19.54462085542309
C        13.97649619159543    1.43862784094547   17.12631882729220
C        15.15439483801392    0.70364818893043   17.22678599916998
H        15.11229733425224   -0.35525343424562   17.44771729741457
C        16.37014436715869    1.33732695852697   17.05314612775885
H        17.28798401445341    0.77305505404985   17.13368024178950
C        16.41188810725725    2.69620326056348   16.77789025181121
H        17.36569886734276    3.18548481304232   16.64515051425569
C        15.23872476952786    3.42565211106391   16.67315729839695
H        15.27643835708227    4.48274634106324   16.45729365515658
C        14.01645789096722    2.79961928219079   16.84661971519918
H        13.08021293225839    3.34233502049794   16.77113046826154
C        12.48894476303647   -0.26200975515207   18.87581234776176
C        11.71480813708715   -1.40025526604118   19.08520131908806
H        11.07148599660729   -1.77686397101934   18.29939162388504
C        11.74465318522598   -2.04116694822667   20.30998914795168
H        11.14670743162583   -2.92793849757277   20.46314618324816
C        12.52906444056804   -1.54082666900344   21.33585518166070
H        12.54961570996429   -2.04159341349968   22.29302978590855
C        13.27780209365137   -0.39080774892043   21.13976697245602
H        13.87527817714561    0.01006536184810   21.94526688799918
C        13.25700568691907    0.25295294717254   19.91719964578573
H        13.82287270374248    1.16141638989035   19.76450266930498

