109
CSD_code = DESJIX | q = 0 | S = 0 | Stoichiometry = C58H44ClO2P3Pd | MND = 5
C         5.22592858211329   11.73081897822363    2.74605308790834
C         6.73586858608041   11.74294002721350    2.73180785448115
C         7.50187320849104   11.80106260805931    3.88516321385446
C         8.89075408717821   11.77002269225693    3.78020926651485
H         9.50160836811948   11.77251249170701    4.67246962665671
C         9.47643800327391   11.72599516722713    2.52731614117621
H        10.55319320198394   11.69603367757236    2.44353672166939
C         8.70433453015655   11.74666194497478    1.36910179694532
H         9.18334543167321   11.75289625415074    0.40027813255238
C         7.32784019098323   11.76178569992262    1.47062746761573
C         6.31433377384060   11.84944662882470    0.35181282717070
H         6.76040945940429   11.91717719880034   -0.64045044801669
C         5.46462150758544   13.05696664071605    0.71406517203903
C         5.26966697131117   14.16371319961610   -0.08412869975465
H         5.70543248710327   14.21060321857652   -1.07214125511109
C         4.52556602011674   15.23083476899246    0.40538823462301
H         4.37986083030593   16.10604806327004   -0.21106242790434
C         3.99289273668291   15.19451665243320    1.67890881555132
H         3.46451582052774   16.05623951166790    2.06121451987974
C         4.16064563744744   14.07041371494535    2.49048721633251
C         4.89400255078916   13.00108036036799    1.99167821002056
C         4.81917211597702   10.63625975234002    1.79655724382230
C         3.84409704081528    9.70562248358530    2.09420776306169
C         3.44629106799490    8.75834051303979    1.14882391053434
C         4.07780409826229    8.74793243520893   -0.10724721635400
C         5.03017782460240    9.72436196639574   -0.40753217202403
H         5.48814592183087    9.75146761134844   -1.38393036581405
C         5.39215123734105   10.66922415726020    0.53285333112902
C         1.56783498950679    7.33130414076891    0.68971805815848
H         1.13954742034417    8.08735620765497    0.02581082623988
H         0.77706795622985    6.90691980616010    1.30775174614705
H         2.03266274785422    6.54504275094586    0.09190248265887
C         4.27231226107924    7.76444972074014   -2.27885153977407
H         4.03516388918398    8.68295851632493   -2.82574666685091
H         3.82305078543500    6.91560382062687   -2.79265096417239
H         5.35825392505587    7.62934643234026   -2.24319197568198
C         6.82657317371137   13.59878626805751    6.07807535923438
C         5.90699659614370   14.04686844821448    7.02669779686419
H         5.08515253081368   13.39892194022306    7.31069545480766
C         6.04538065247579   15.30443612950889    7.58032175957984
H         5.33214162363999   15.65423471809383    8.31171064409246
C         7.09247800169226   16.12244062812010    7.18460456209936
H         7.19828468889361   17.10816795379915    7.61364629896989
C         7.99634140603225   15.68473582894764    6.23095080053543
H         8.80553064602633   16.32881499416434    5.91678647581753
C         7.86505604491872   14.42629091212858    5.66911657642385
H         8.55996660628900   14.09260950587831    4.91091192022284
C         7.14213948158615   10.74910871649201    6.53217962282268
C         6.66234847802056    9.45116430765409    6.37106254367243
H         5.91636912492691    9.25244728650657    5.59905585391360
C         7.10688583181191    8.44427654049390    7.20411852751075
H         6.72474357710008    7.44039676171308    7.08891564154529
C         8.02957990122628    8.73275951177329    8.19869629457498
H         8.37180525672949    7.94929742472088    8.85917578475220
C         8.50570601532714   10.02387979627166    8.35931342602021
H         9.21843626239551   10.24256616415823    9.14154494384881
C         8.06431939931901   11.03938950070710    7.52852774638860
H         8.41924702400016   12.05305274184530    7.65867315892398
C         3.62788971643229   15.71904057537823    4.68944164770423
C         2.59252360646706   16.35284754824801    5.36726490708154
H         1.65935407686380   15.83125557023389    5.52850227531353
C         2.75481014620127   17.64715868413942    5.82733478997106
H         1.94292011581975   18.13791771984420    6.34501291146975
C         3.95270109705725   18.31367014155820    5.63065000653954
H         4.07531487902718   19.32452770724127    5.99151454945963
C         4.99706531462791   17.67755929707803    4.97779707388933
H         5.93713511809168   18.19015829811235    4.83189036901703
C         4.84027774950733   16.38482001037517    4.51999066599045
H         5.65759723952140   15.87814302492972    4.02220470411930
C         1.73937985157069   13.72804852237572    4.00284573099092
C         0.97081952827487   14.39553350828520    3.05566923570136
H         1.43590065473243   15.08096897208157    2.36251624019493
C        -0.39342563127622   14.17695168131677    2.99899773438380
H        -0.98960340548573   14.69783061061029    2.26277196941440
C        -0.99985141496847   13.29853267773889    3.88319235751735
H        -2.06678338720415   13.13533156362979    3.83399302497996
C        -0.23822593536604   12.63106873044259    4.82671278935167
H        -0.70877169559271   11.94526557165770    5.51605947867513
C         1.12808280593398   12.84099976085834    4.88537171102675
H         1.73363558855095   12.32587416100981    5.62547794860500
C         3.14429948999428    8.42109995888993    4.61762860366224
C         2.42879550483651    8.29406340651624    5.80726192021007
H         1.74926670877717    9.07977399394516    6.10929699975927
C         2.62622559717170    7.19071564176716    6.61600554510871
H         2.07370010385442    7.09583030523122    7.53928989102470
C         3.54608023780293    6.21941536035177    6.25446268979281
H         3.70307071473474    5.36090401442401    6.89178356537820
C         4.27828834137201    6.35711090222639    5.08644348660014
H         5.00854475690824    5.60792514546891    4.81393174501474
C         4.08686426484881    7.45809584388915    4.27129804268781
H         4.67069230325293    7.57865191923426    3.36832493574673
C         1.28810111961260   10.07242980877697    3.07981450421813
C         0.24734916154049    9.25353132799468    3.49250735046830
H         0.42284838203787    8.48450097073689    4.23003512588731
C        -1.01091500140357    9.41207789108313    2.93740940441177
H        -1.82146044725711    8.77283638280680    3.25759113948398
C        -1.23387609388965   10.37713052823970    1.97043061398292
H        -2.21711676371451   10.49205043799318    1.53791123202038
C        -0.19461553668647   11.19583176277802    1.55609423000671
H        -0.36498468615760   11.94856369498658    0.80012324672276
C         1.05927954396303   11.04925320963073    2.11353971506216
H         1.87758526818373   11.69084954421549    1.80559771843031
Cl        3.67715301298986   11.10777547769093    6.82218553549153
O         2.47980284644821    7.90690470592270    1.59707125503228
O         3.70674301204102    7.76447566777769   -0.99245785243570
P         6.46935919378622   11.96897309100916    5.37465657726560
P         3.54425370827742   13.96152652488484    4.21719956851917
P         3.00201492391013    9.96458118035145    3.68018553933800
Pd        4.41025672422662   11.47531107028987    4.62007442178198

