73
CSD_code = DESLIZ | q = 0 | S = 0 | Stoichiometry = C30H32BMoN7O2 | MND = 6
Mo        0.87944017593430    6.66393459570426    5.16177547258362
O         2.42462636295037    4.08191801530209    4.47174461126560
O        -1.19613760052052    4.79648503707858    6.47583598496002
N         1.95068699582256    7.17771431798077    6.95886060538926
N         2.32809787427942    8.43970651310127    7.21405306992761
N         2.28354565888983    8.04810336179189    4.25882469044814
N         2.61024829804633    9.19742071966913    4.87209419141485
N        -0.16854530387815    8.48226011160562    5.60027060389520
N         0.46770396481406    9.57956065295077    6.03898096396506
N        -0.36556435609202    5.42985589667579    2.50909250210924
C         0.08589322764915    6.03996903902712    3.58188860182802
C         1.93214228027649    5.07619979125670    4.80343885333507
C        -0.41075901785529    5.54099417051555    6.06351594387398
C        -0.04449149260084    4.05812315043367    2.31892477174356
C        -0.26054173358839    3.15154696019756    3.34934921583533
H        -0.70522618835208    3.49238936611383    4.27258742492333
C         0.09907939584796    1.82723285184794    3.18087337736962
H        -0.06750106721951    1.12465674422617    3.98311030129675
C         0.66919662441688    1.40329090209008    1.99214749766409
H         0.95000101927626    0.36869055079515    1.86496496106230
C         0.88511295167601    2.30999757807953    0.96757282726282
H         1.33764349237108    1.98539606354368    0.04225488885851
C         0.53449569857067    3.63754414484114    1.12655509804186
H         0.71214795998291    4.35121107093330    0.33474112266420
C        -1.10785266055738    6.12669921512178    1.54167945012952
C        -1.93394599623257    5.45153190532770    0.64516874474292
H        -2.00397446470433    4.37472968364205    0.68407238284387
C        -2.67041168540010    6.16331931079171   -0.28217351431034
H        -3.30776803306393    5.63158600833039   -0.97306142410184
C        -2.60350377317692    7.54647274372606   -0.32456998388498
H        -3.18209810835193    8.09561422575864   -1.05153274920993
C        -1.79323406187683    8.22001099528458    0.57557836616984
H        -1.73798521986754    9.29826046185660    0.55241354377716
C        -1.04720979806964    7.52106941967564    1.50339892703405
H        -0.41044362111946    8.03973398771345    2.20899842532381
C         2.14644158823048    4.94830600089667    8.03075263731728
H         2.63162992891283    4.44212269578559    7.19571290166327
H         1.08088487320239    4.72348103013480    7.98654583821811
H         2.55138349195337    4.55725057142919    8.96109561998302
C         2.37646670719488    6.41530843715625    7.96150615032521
C         3.04666352616461    7.21460814707943    8.89236195282304
H         3.50404979464863    6.89948611776622    9.80838835937070
C         2.99559043480749    8.49857196270122    8.38276917444307
C         3.55116031899585    9.74894851404192    8.96345461335896
H         2.76170663169690   10.47790586334631    9.13971115634389
H         4.28021154455983   10.19705339453593    8.29005472913747
H         4.03825282663005    9.52323771658089    9.90836054174534
C         2.82390350467514    6.89192292206974    2.12480696452712
H         1.88968905780878    6.97034600419144    1.56791008914697
H         2.84026912335758    5.92870157645482    2.63135691232898
H         3.64887934364294    6.93932446753452    1.41773940013006
C         2.93966529937691    8.00597000525755    3.10307236332942
C         3.71310799255610    9.16375460314826    2.97099891056977
H         4.35463466397241    9.42515727378672    2.15383730099879
C         3.47884798677107    9.89872037717758    4.11699370758221
C         4.04539397585214   11.21743632567872    4.50398305899712
H         4.59272209835519   11.14303679893326    5.44225857005742
H         3.25531042746692   11.95583866436440    4.63194705457556
H         4.72413015806830   11.56072191036259    3.72775192642578
C        -2.48366798985166    7.80249415715655    5.02984746884589
H        -2.64137079396408    7.03026837258873    5.78258186785552
H        -2.15673446458921    7.31365943568152    4.11152274428377
H        -3.42681447250793    8.31285630417406    4.85088436449762
C        -1.46135796857953    8.77756066801973    5.49085051023137
C        -1.66037438563908   10.10737648379469    5.87356842577790
H        -2.58725534856648   10.64398138098067    5.89714871067878
C        -0.41000546591016   10.58527533011097    6.21969712808901
C        -0.03673446415762   11.93833477417787    6.70893067298835
H         0.42856781460896   11.87847528511994    7.69148803864817
H        -0.92782178557528   12.55639354339518    6.77913031407553
H         0.66921923721279   12.41435180349796    6.03008598487854
B         1.99129504983204    9.56373435580843    6.22871074604797
H         2.38599194055518   10.60619716208342    6.61355333947077

