56
CSD_code = DESWAA | q = 0 | S = 0 | Stoichiometry = C23H26Cl2N4Ti | MND = 6
C         0.24692104040384    8.62878291937187    4.44284813366247
H         0.19245649701701    9.14337466654170    3.48776661790087
C        -0.89493852645278    8.14326177247656    5.05763500780127
H        -1.85597278223464    8.27202860318108    4.58438672927380
C        -0.78009161248655    7.48873621649431    6.27600254394022
H        -1.64994717825392    7.08962353066870    6.77596824979368
C         0.48210365673961    7.36701063987999    6.83430521610896
H         0.62573305799233    6.87402546835958    7.78320642713580
C         1.57250955420475    7.88902996537583    6.15537067947267
H         2.57282031884055    7.79751411873187    6.56886376841285
C         2.67762773549678   11.40987878881395    5.61119645605600
H         1.64950364307653   11.07753467076165    5.51737975787263
C         2.96556667160988   12.65032516923244    6.15740169519449
H         2.16724600623850   13.28808166573214    6.50321752472726
C         4.28939753032100   13.05256553551935    6.23787812197708
H         4.55049407323191   14.01709178718121    6.64822909866683
C         5.26933759448217   12.18496743604350    5.78462551503142
H         6.31462582364813   12.44830929555318    5.83409529235027
C         4.88369691029506   10.95958673159942    5.26206369031175
H         5.62880893717595   10.24387394347143    4.92752754227416
C         4.98047489273399   10.54120944394522    1.82201275486494
H         4.30583875234089   11.34581932676041    2.09650937864659
C         5.88240026675943   10.71320981538470    0.78216811331070
H         5.91768636078916   11.65217332946324    0.25184448030097
C         6.72369696115374    9.66743580061191    0.44237078471710
H         7.43177670393061    9.76436945369509   -0.36732013645980
C         6.63715476763869    8.49421730575865    1.17794315786866
H         7.27833249920065    7.65380955007538    0.96199161039917
C         5.70616713583957    8.40854348368397    2.19950013492454
H         5.62207608490845    7.51013906060345    2.80227314718289
C         2.22096840224647    6.78602375538150    1.73884959641355
C         3.33124860371843    5.80803190099023    1.26758005990362
H         2.92632769911968    5.16120458437404    0.48478143675668
H         4.15313257666371    6.39191167730866    0.84345318861532
C         3.81815985436874    4.97556345092693    2.44979064832778
H         4.20119010504322    5.65129991942576    3.22081575981418
H         4.62558880077841    4.31174304782956    2.13108254663688
C         2.66913992073237    4.16673440027261    3.04396475061401
H         3.02912561000134    3.58144095073898    3.89253151278742
H         2.27630177404246    3.47287089649841    2.29507337821066
C         1.56176902544405    5.11247309141125    3.49896315481744
H         1.96915672057737    5.79569512345711    4.25418035648320
H         0.73565418383300    4.55057059644054    3.94331316402390
C         1.05552531223184    5.94003102063950    2.32163008075807
H         0.25662926208908    6.61375352078382    2.64263945525973
H         0.66480244671412    5.28802624374372    1.53629343274100
C         1.73405936091921    7.56813523203151    0.59571355406790
C         1.37492795704925    8.31131684292011   -0.27278855314033
H         1.04307455965814    8.93990287674990   -1.04531278700108
N         1.46699105075599    8.49990954147775    4.97236882359131
N         3.61475276458653   10.57923352685926    5.16678461619988
N         4.87708643755020    9.40615353752526    2.51424346106595
N         2.70949940983360    7.69804280310419    2.68607538697995
Cl        4.59629671985623    7.74245995920182    5.14686872499859
Cl        1.98745800849330   10.68190959615022    2.69621070060185
Ti        3.14663005707973    8.92293240878905    3.74393205674436

