42
CSD_code = DESZUZ | q = 0 | S = 0 | Stoichiometry = C10H19CoF3N5O4 | MND = 6
C         2.65617409398147   10.47099175208534    2.41674718309452
C         0.02496043807324    8.65276870829050    3.10344556865242
C         1.12576694035596    7.78034120443743    3.42020945422178
C        -1.21686930959904    8.16135104601425    2.44323431440398
H        -1.59233428484900    7.27040149253400    2.94160410383116
H        -0.99504591156572    7.90637397646091    1.40805448263000
H        -1.97284689462708    8.94176575721588    2.45680081490234
C         1.10868771480324    6.31025190787460    3.15407955521935
H         0.91121220645331    6.11914131192981    2.10136502846376
H         0.34105421842466    5.81261261102718    3.74606827973042
H         2.08145460678622    5.90080735229203    3.41770839336214
C         3.88092673921993   11.91230789968736    5.02684477248996
C         2.73869029703015   12.76176698975551    4.80987078176558
C         5.20125899643914   12.45111216698943    5.45881033288211
H         5.53415613409187   13.21018243230300    4.75381387320016
H         5.92973822758721   11.64546894415095    5.49570947902383
H         5.12224414810690   12.91275718753541    6.44223778486368
C         2.76947117546144   14.23807395991149    5.03659713630732
H         3.08447350599167   14.47369370221354    6.05187270459390
H         1.77170218127457   14.63555409864175    4.86506369924756
H         3.46132674546969   14.71030271389926    4.34136724288113
C        -0.15166924418847   10.35217610404261    6.49797364859419
H        -0.35077151174673   10.24223642534032    7.56765741843418
H        -0.85857050337072    9.73522117999198    5.94716913938316
H        -0.31195067955909   11.39160393583909    6.21591032624023
N         0.21098351141685    9.88293098106987    3.45324861611994
N         2.13000828868065    8.38820698534077    3.98297023741019
N         3.64557786520826   10.65457218473971    4.84090825702341
N         1.67559934609435   12.12460045278426    4.41140540744354
N         1.22179456064721    9.95735559720452    6.15696775451824
H         1.85916187616315   10.47163875926526    6.76482700664311
H         1.34749655994132    8.97161543772332    6.38754333498251
O        -0.77024237659623   10.79145963634229    3.24182965239107
H        -0.37874500667327   11.68357377833792    3.59200208537807
O         3.16663680853670    7.77127399705550    4.41655202079795
O         4.62633323854626    9.74707336004182    5.06808694293556
H         4.20958132031105    8.84075351900411    4.80153519255635
O         0.54361733661212   12.70674087989309    4.24491261405624
F         1.86722579136335   10.06855243864611    1.38844703531937
F         3.79923647420374    9.76155089144526    2.25245201147048
F         3.00739463603221   11.74279863218248    2.09695917869638
Co        1.91839973946810   10.25593760846017    4.17413713383836

