54
CSD_code = DESZAC | q = 0 | S = 0 | Stoichiometry = C23H24Cl4OPTa | MND = 6
Ta       11.10193096727265    3.04541353379581   37.10284431711470
Cl       12.23391331080504    2.41599337582978   39.08409714085010
Cl        9.18004338189129    3.08475330908302   38.23162172825583
Cl       10.70921852068816    0.94968611843069   36.28992696505619
Cl       10.12098122577463    4.29390185646927   35.38466020300667
P        12.02583633548635    5.39836534822062   37.92317517586135
O        12.69504804546101    3.23053273410931   36.30007066171335
C        13.81856396085788    3.77301604568693   35.86507598443606
C        14.38350619467742    3.39302272661635   34.64820623708221
H        13.89040737622380    2.62025657333495   34.07803089744508
C        15.53745661011117    3.99407944575084   34.18460582424521
H        15.93363082449307    3.66768418733606   33.23803850047320
C        16.17188893192947    4.99323078448594   34.91381546308476
C        15.60022304123112    5.36428849890700   36.12888082579010
H        16.06732855174817    6.13521683819726   36.72491947455526
C        14.44381747996567    4.78299175032607   36.62080047588655
C        13.86367018446365    5.20564855906771   37.94012016283715
H        14.31273321373715    6.14325574833016   38.28446704857981
H        14.04694921701569    4.42985906288346   38.69492789991226
C        11.67435623265073    6.82297145096157   36.85495466556618
C        12.59440006401932    7.42835494182143   36.00871153936038
H        13.61233716047979    7.07322475641210   35.96002843696044
C        12.19546517620707    8.48613966125142   35.20836875392025
H        12.91149757656597    8.95592391519932   34.55005010923116
C        10.88716761119092    8.93607620832655   35.24318107502964
H        10.58269789022869    9.75775207372918   34.61230832207671
C         9.96366562331751    8.32476520195129   36.07826419075998
H         8.94020360791926    8.66752868410887   36.09633839503533
C        10.35314855950007    7.26902326010634   36.87725579337054
H         9.64127334938506    6.76857954552312   37.52192428211858
C        11.71516772364006    6.08542245342991   39.57831263868503
C        12.16202616782320    7.36311144866311   39.90487736709734
H        12.68781954291453    7.95369798905879   39.16690971934950
C        11.91720894735777    7.87700132807055   41.16411625214226
H        12.26337719229487    8.86818517512625   41.41745532352497
C        11.22432715358692    7.12309528631980   42.09892705181596
H        11.03387466758394    7.52866770655713   43.08136764863583
C        10.77107188506064    5.85589812291501   41.77228506481773
H        10.22568598291100    5.27269544790287   42.49851550161932
C        11.01154511666861    5.33416927757894   40.51254127725379
H        10.65773641402781    4.34736876039211   40.24880687275074
C        17.43582668536479    5.69312096105657   34.44064605002890
C        17.14372700296715    7.19268761710287   34.28449042988449
H        16.86206658018206    7.64445926234545   35.23158205905072
H        16.33161362896753    7.34482547373018   33.57679291277277
H        18.02653656788080    7.70762802260463   33.91250318000503
C        18.54755538888765    5.48214004312353   35.47795831470106
H        18.28079772857177    5.90631650333051   36.44166113007105
H        19.46655710797550    5.95617254525454   35.14080407678728
H        18.73683441335388    4.41981469112964   35.61374267579843
C        17.93184301374207    5.15991532383768   33.09430835026994
H        17.19079627146236    5.31544569107736   32.31414598501441
H        18.16924583465593    4.10087731864319   33.15711474687635
H        18.83739875680166    5.68994735452809   32.80696482145844

