52
CSD_code = DETBUC | q = 0 | S = 0 | Stoichiometry = C16H19CoF7N5O4 | MND = 6
C         7.03703196679455    2.59471347237089    4.89187675437318
C         7.13424406796879    2.52436518942469    6.43794812020144
C         7.34027032276000    1.09177851339017    7.00649217673109
C         9.32675960932657    3.47599917156373    2.72444849888260
C         8.24930731816773    3.00174565168826    1.89525211057149
C        10.75322887555725    3.16704779601639    2.43032765649482
H        10.98306699027711    3.36894992182541    1.38671327110019
H        10.93623586703530    2.11111824343787    2.62427100011847
H        11.39768026219999    3.75796357706515    3.07532453712531
C         8.46572299432002    2.20067951532336    0.65326991140206
H         9.02845747614013    1.29765763167751    0.88083105480033
H         9.01616601483440    2.77514296655803   -0.09077799955585
H         7.49577277022740    1.92499427641108    0.24551680972948
C         4.80970479774068    5.10970391262002    5.23478578562049
C         5.89225733819698    5.69194133582173    5.98392424393894
C         3.38730013116946    5.25497839519489    5.65003043990076
H         3.15179999491191    6.29629819753919    5.85654681184737
H         3.22324645607054    4.67978867445485    6.55982586926655
H         2.73471300412297    4.87382568627505    4.86969838450043
C         5.68473261031407    6.53252273079081    7.20040615771598
H         5.13763475194622    7.44277709052916    6.95811252375052
H         6.65827401362663    6.79785877129600    7.60660677382141
H         5.12273849844321    5.97668210602431    7.94819331659076
C         7.90915577168855    7.00612189105095    3.10105787419712
H         8.59313211276965    6.87894128937661    3.92895076561578
C         7.92952761436977    8.18173913805328    2.37124487190060
H         8.63873043849929    8.95316554067444    2.62473759483903
C         7.03338860303430    8.34360520168756    1.32763744074791
H         7.02236338997623    9.24864136815117    0.73978989424951
C         6.15052014726369    7.30988928073881    1.06160995334494
H         5.43188942221289    7.37940581099912    0.26090863098434
C         6.19635735764504    6.16726164123564    1.84058792416247
H         5.52214264010353    5.34882246611739    1.62811049269146
N         8.94188583447669    4.17447500970905    3.74098236735512
N         7.06818570087919    3.32658551330390    2.33109027778930
N         5.18655398926207    4.46283706810716    4.18220624369281
N         7.06988740972467    5.41444457976921    5.50542474970937
N         7.05878366212388    6.01123024116021    2.84615394495559
O         9.86707002283416    4.68787124795738    4.58856711011704
H         9.31863554395596    5.19171881055783    5.30646516993021
O         5.98616212908869    3.04679665943283    1.70874946064148
O         4.25386375594332    3.89985919472133    3.37534264070349
H         4.79494758157616    3.41378969365927    2.64866272460814
O         8.14916853122924    5.91274190990161    5.99126420351084
F         8.01887535488272    1.73035209001097    4.44755796469820
F         5.87881213450528    1.92285801601385    4.58482861938807
F         8.15995986402045    3.27139709870367    6.89729726776073
F         6.00842562349400    3.02570885064676    7.00094393860151
F         7.14065590777326    1.09296666692821    8.32909260310581
F         6.50382082164364    0.20066303991691    6.48653155911934
F         8.58207328755056    0.66068310671160    6.79916432925520
Co        7.06667921532166    4.33169474740476    3.93601517339567

