49
CSD_code = DETBEM | q = 0 | S = 0 | Stoichiometry = C15H19CoF5N5O4 | MND = 6
C         7.24275680945333    2.91094894882841    5.36875181823265
C         7.17475154621730    1.43283610955964    4.93839418976581
C         9.21748936293821    3.52179718108143    2.68914852696469
C         8.09908160286817    2.93612143182391    1.99816628173453
C        10.62588855462542    3.26979819795148    2.27627238263944
H        10.84431549316128    2.20830263794764    2.37800734120644
H        11.30148711488580    3.83692352422138    2.91042519606055
H        10.77524913946383    3.55077448925755    1.23554984937216
C         8.24813469315360    2.07371985724562    0.78858399396739
H         8.82933221132616    1.18628688559406    1.03225931528357
H         8.75155280816417    2.60986107518836   -0.01441019977206
H         7.25814508691103    1.77036930595656    0.45560774805249
C         4.83726144867826    5.13603045670607    5.44108183213668
C         5.94203470418948    5.81870540083292    6.06295745902070
C         3.44204552345323    5.26396153913228    5.94578738967554
H         3.14568681168882    6.31044693822750    5.98747048050636
H         3.38425095706008    4.85249697029902    6.95214115138237
H         2.76500870883983    4.71500859486729    5.29719224730704
C         5.78094330900622    6.73163032629869    7.23416632443461
H         5.12828921177544    7.56851164963658    6.98950700914380
H         6.76083510179319    7.11031568698729    7.51606698783197
H         5.35174500732569    6.19207683207628    8.07627650958250
C         7.64785120022122    6.98866241017612    2.91662099372224
H         8.39508551463165    6.96871155038008    3.69815663528414
C         7.55511582134038    8.09286198427348    2.08769292276780
H         8.23702259574690    8.91727797790317    2.22115917179081
C         6.58336168002891    8.11539322116654    1.10085809946328
H         6.48396148692860    8.96158829622908    0.43825570328590
C         5.74317033817317    7.01981990476406    0.98929602231761
H         4.96965687927284    6.98187212272613    0.23928646954784
C         5.90419245151218    5.95581349984508    1.85942090486859
H         5.26255086101099    5.08994536381808    1.76982284956881
N         8.88491351733856    4.27689866958134    3.68304328014672
N         6.94674487902081    3.21652905213270    2.53382166778050
N         5.16866124467549    4.41118383335179    4.42438189510231
N         7.09379316099482    5.56516292501272    5.51571470805933
N         6.83862821049092    5.93402592985102    2.81008918701947
O         9.84933124457616    4.91322401096955    4.39032423619537
H         9.34125326999503    5.41461240992758    5.13487686053655
O         5.83350005660367    2.83674383037623    2.01709647682079
O         4.20924326746104    3.73710298607003    3.74301631661757
H         4.71875791329913    3.22741358169914    3.00242093865539
O         8.18595578716152    6.11841688950866    5.89030465181455
F         8.44986004158075    3.03159563171173    6.01497770499932
F         6.32860685183735    2.99239691099510    6.39977222713866
F         7.24219407601032    0.59761383797109    5.98090042713943
F         6.03914513253950    1.15158534482600    4.29458644620152
F         8.18763146001341    1.09744958508824    4.12247313345715
Co        7.02552585055664    4.36517419992628    4.05142623516865

