59
CSD_code = DETCAJ | q = 0 | S = 0 | Stoichiometry = C21H24CoF4N5O4 | MND = 6
C        10.07932787109135    3.18594550479936    9.43204499038240
C         9.48756517171170    4.30568403279612    8.52642964885428
C        10.55781787832289    5.21861456257627    7.98686576046029
C        10.88706733448511    6.37810036711992    8.67479065991188
H        10.35470640219825    6.63375369742723    9.57782057762172
C        11.89427867517681    7.19385900966674    8.19198174548295
H        12.15022013576622    8.09770293843528    8.72426332712767
C        12.57265279109308    6.85232070097977    7.03411512175708
H        13.35989847078711    7.49110412823137    6.66141141852835
C        12.24498555526475    5.69066009208466    6.35550746758062
H        12.77539305349876    5.42033996518661    5.45483212469535
C        11.23914465496431    4.86804056107826    6.82964233622666
H        10.98107778779901    3.95796142809817    6.31050746012719
C         7.73618808582655    1.10426277162211    8.12524463619092
C         6.83790190093240    2.07824340657627    8.68624140920457
C         7.46414927191241    0.42850704720087    6.82559239442094
H         6.49471655297489   -0.06576451126568    6.84675524656059
H         8.24374484474047   -0.29992539043897    6.62052438141088
H         7.45116053043708    1.17351773065600    6.03198004350932
C         5.53681215972218    2.44783577426780    8.05260619739123
H         4.88235390996802    1.58128576393504    7.96749611563810
H         5.70763893227033    2.85447604604071    7.05762283914351
H         5.05564611740284    3.20400007865540    8.66884198695148
C        10.09840337584411    2.77662783992161   12.69844923515187
C        10.92759083195856    1.70078026161625   12.22243885881296
C        10.42956773159292    3.54996599080126   13.92862549454730
H        11.33534709957788    4.12925932701498   13.75633027345128
H        10.60662102873344    2.87876477961682   14.76647215523508
H         9.61503029351043    4.22925293119590   14.16469199937266
C        12.15394566555965    1.23642173342134   12.93919877879678
H        11.90527075602850    0.84986148324097   13.92707587811941
H        12.85898378166947    2.05729006857979   13.05508565588866
H        12.61794623003242    0.44630257226657   12.35288050020875
C         6.82531639712694    0.87866617173563   12.22282994962599
H         6.55015476731915    1.92438558855372   12.24276078573171
C         6.08884786693992   -0.03942695257313   12.95104125062226
H         5.25519022217302    0.29742139656498   13.54615181582933
C         6.44016012735297   -1.37817308014186   12.89833920794955
H         5.88710617064237   -2.11987491192121   13.45453059040368
C         7.52149118563058   -1.73781034697173   12.11083508497750
H         7.83993809918717   -2.76499373475956   12.03241007453928
C         8.20289282943538   -0.75510930887842   11.41435698744598
H         9.05732038754453   -1.02279101607082   10.80785679240124
N         8.78061455901355    0.87511944993314    8.84944217059109
N         7.26587998082051    2.61099341035889    9.79318034556472
N         9.06136747638726    3.00861226320629   11.96385140414063
N        10.51336328526812    1.16961145142457   11.11002046248908
N         7.86582704377463    0.53337543936406   11.46557037128220
O         9.68456282100183   -0.05287198065156    8.44530640361312
H        10.40952073565372   -0.04212773174505    9.17822458286730
O         6.55660929533653    3.43443614512999   10.47943837441214
O         8.19821379078495    3.99225745401769   12.31788822424521
H         7.45586961187011    3.95842140500704   11.59298037588262
O        11.08597780657833    0.16292851852218   10.56048062390625
F        10.93140821078281    2.47562413031934    8.62048067605118
F        10.95152502967386    3.84041309169374   10.28165214954717
F         8.79230675026774    3.72306112685481    7.50300738093919
F         8.55978967903550    5.00258336816070    9.23396810290097
Co        8.92259098754573    1.92401595946345   10.42132909327779

