51
CSD_code = DETKIW | q = 0 | S = 0 | Stoichiometry = C20H24MoP2S4 | MND = 6
Mo       10.43681837597897    3.30308274501074    8.67170753716606
S        12.13397166613635    4.85519782765976    9.41304059073055
S         9.67200379333219    2.31752930156510   10.71311186462347
S        12.24674556972977    1.33156350310190    8.12198437459989
S        10.53528400338908    4.29674809361441    6.45494730268691
P         9.25772847379603    5.09964282330654    9.57629398332680
P         8.56287277153710    2.22023586117845    7.52168537778744
C        11.49098025009103    6.43967788664728    8.78250124488365
C        10.04306982198420    6.71168590757537    9.19578175735761
C         9.39001546750288    5.00303442647828   11.39937343860082
C         9.02924163121039    3.60063049746504   11.84809197841011
C         7.50646065664346    5.27772773981182    9.16916381762726
C         6.45547919721634    5.28876265674706   10.07695634434257
C         5.14990260191083    5.29513948524932    9.61440211186426
C         4.88817890861547    5.29901001532142    8.25593678473719
C         5.93511362038016    5.29727270265210    7.34596791876598
C         7.23863458631110    5.27312159042444    7.79954143759203
C        10.62178703340309    1.40587424864796    8.07224076204210
C         9.42516927037990    0.60504937382468    7.72444249650515
C         8.67666831992872    2.47526079015034    5.71221232786032
C        10.10269942076678    2.89214877471630    5.39000445075001
C         6.79400313290749    1.98013884136382    7.86145616705206
C         5.78943476224831    1.98793512434280    6.90064531650773
C         4.47034747156499    1.84209865871069    7.29240251537682
C         4.14786774810753    1.69539681471530    8.63115668543384
C         5.14872125974146    1.68544617901191    9.59026396970049
C         6.46754113778659    1.82962758186705    9.20704916225035
H        11.57734595858209    6.37980171335090    7.69467101083817
H        12.16703062801133    7.21020462046372    9.15481730076868
H         9.98529463203474    7.34333686240793   10.09080761044800
H         9.49050172612646    7.19822928695945    8.38514015515856
H         8.76845381975304    5.76698360403721   11.88179657643106
H        10.44654333014988    5.20892562783665   11.61975760061612
H         9.44972371116392    3.36901625938364   12.82759090861993
H         7.94803197297189    3.44994522557632   11.88233887077056
H         6.64517299446322    5.29274796186893   11.14044772118410
H         4.33279225549672    5.29485343119987   10.32093107364494
H         3.86746210840759    5.30034074943875    7.90383622381959
H         5.72798071617792    5.30649135003253    6.28570670404044
H         8.07611416376832    5.26058766567597    7.10678619169927
H         9.48915290152122   -0.05797488447866    6.85396608158492
H         9.05773182280091    0.05572687533458    8.59924371088074
H         7.99445567759191    3.29168714098777    5.44987305153324
H         8.37974917226681    1.56261729810759    5.18078888289996
H        10.81817016979426    2.08621838878393    5.57633603100591
H        10.19571704184277    3.22999643340835    4.35624800411765
H         6.02762292968316    2.10498123073683    5.85428053685031
H         3.68870695146700    1.84545835612257    6.54670853665769
H         3.11495347351847    1.58784921750985    8.92729173016274
H         4.89817624585181    1.56736722263029   10.63412998782533
H         7.26727464543207    1.82736891141959    9.93904377832957

