59
CSD_code = DETKET | q = 1 | S = 0 | Stoichiometry = C28H24CoN2O4(1+) | MND = 6
Co        2.98024742867938    0.02875313181701    3.16636339332958
O         2.81693772745343   -1.38023570493942    4.71495280973778
O         3.01955888399240    1.19690736465962    1.75442205934952
O         4.58980693649493   -1.01939433783652    2.38743673984466
O         1.63867797366865    0.99036057160005    3.96805143822343
N         4.23904326713500    1.06417381969657    4.13655818642522
N         1.71365271421583   -1.00370828591753    2.15904910025943
C         3.28447196887837   -0.90951628962383    5.99189244601773
C         4.74242058973693   -0.57208523902462    5.87940524803552
C         5.68485350670359   -1.21280467888390    6.66994385509346
C         7.02802760128559   -0.88899719535396    6.57954685868862
C         7.44226232985004    0.07812549813451    5.67858284656460
C         6.51731388570317    0.72036811324133    4.87796991427150
C         5.15899713984697    0.41081751029273    4.97198025564062
C         4.33669551922758    2.34949848660337    3.99454302107643
C         3.66104691366501    3.12323692642187    3.02069510671426
C         3.66354682721798    4.52867888645392    3.10109006973240
C         3.06507227365782    5.29155147115032    2.13342164410682
C         2.46158440007591    4.66640902487275    1.03745908449898
C         2.44754105686489    3.29985999309099    0.92272132842615
C         3.03407040735886    2.48179443478365    1.91224951108649
C         4.31261637346568   -1.62090814398972    1.11732649093280
C         3.25098721455641   -2.67522989141381    1.24835575190769
C         3.49391813978030   -3.99075788146514    0.88300971883935
C         2.51763709246094   -4.96195296205857    1.02596913078202
C         1.28464930848124   -4.62194172247800    1.55685351322201
C         1.02783132730151   -3.31660951889943    1.93100396162818
C         2.00022041621823   -2.32751691077969    1.77510803657815
C         0.58156049764786   -0.49677753646682    1.77673717511749
C         0.03561900696180    0.73609815898081    2.21092591462488
C        -1.10694691657587    1.26082512597302    1.57737204105904
C        -1.67980283078190    2.42835911520236    2.00851560331653
C        -1.13381305496431    3.10048635667257    3.10618564542058
C        -0.02418984681095    2.61518109207318    3.75090775735441
C         0.60408610792929    1.42940372630446    3.31884062993732
H         1.88905090958545   -1.62478488094194    4.83062166612104
H         3.13630485643368   -1.69993447928055    6.73520959551872
H         2.71102708745212   -0.02056043671361    6.28343172489673
H         5.36042592911413   -1.96460772583143    7.37348097790091
H         7.74677718828366   -1.39232844341784    7.20607539451533
H         8.48746511317323    0.33168705286004    5.59615960377678
H         6.83912849215037    1.45580855216680    4.15576849555858
H         5.00601171695938    2.89113317021351    4.66302299826881
H         4.13796003964217    4.99666616442655    3.95114878865587
H         3.06087008706561    6.36694478533881    2.20853858300619
H         1.99300974026146    5.26811702779145    0.27352185208314
H         1.98723153872772    2.81216937330005    0.07766410221354
H         4.94363157167041   -1.70742153614699    2.96954898472709
H         5.23605588351804   -2.04383721168297    0.70868386808810
H         3.97647168367562   -0.79889466422134    0.47903854035593
H         4.45647114856254   -4.25265452497854    0.46964922838858
H         2.72085096035289   -5.97879807372605    0.73094368844906
H         0.52049744878877   -5.37303117276164    1.68165430057071
H         0.07089659027971   -3.05464289721172    2.35987624430208
H        -0.02351710059984   -1.06543940926068    1.07019918430414
H        -1.52019307538397    0.72883580923730    0.73303193604695
H        -2.54788629552127    2.82879193390318    1.51032413472543
H        -1.58634217410610    4.01915439848102    3.44703975853100
H         0.40269847253191    3.12797467956225    4.59862006115141

