69
CSD_code = DETQIF | q = 1 | S = 0 | Stoichiometry = C26H36Br4N2Ta(1+) | MND = 6
Ta        4.28149679240219   10.36485866293052   16.32667808165660
Br        1.96420037832835   11.10393281987543   16.51395595011636
Br        5.38846327689981   12.29823146534933   15.33219907736886
Br        4.79823348475959   11.18616824157904   18.64470743365332
Br        3.93831231727248    9.21021593421112   14.15374544021725
N         6.37574949584640    9.13687967450433   16.67444073864722
N         3.88087611889017    8.26731150952718   17.53042501394576
C         6.25254744455191    8.12516240404015   17.47844355718479
H         7.12249894453749    7.55980835043229   17.79985649656821
C         4.97118492450837    7.67799925766843   17.91664241931819
H         4.93220861516302    6.79545150792969   18.54868411339243
C         7.63331533024575    9.71350553382128   16.46244506419658
C         8.08107224698744    9.92282259853513   15.14206819485026
C         9.20213233608284   10.70361740843433   14.92480618773893
H         9.54744629962184   10.86971501742494   13.91808148053915
C         9.89804836230182   11.24667206596071   15.98989530162677
H        10.76732706426202   11.85991405849906   15.81336409696209
C         9.51176642190731   10.95323187712970   17.28379510690229
H        10.09127591222330   11.33926407979655   18.10621270211236
C         8.40292310729613   10.16686614774148   17.56273134199188
C         7.46851681156729    9.14454468756620   14.00562242990788
H         6.54839399730153    8.67242845232846   14.36314862220194
C         7.15167769830619   10.01053014158757   12.78743407145730
H         6.60366114498706   10.90635422718588   13.06844549539049
H         6.54590425319572    9.44185626932789   12.08691061488159
H         8.06022756323394   10.31452465170032   12.27665205030798
C         8.42600637401412    8.01070233168413   13.61662016983818
H         9.37154866383634    8.41147477668513   13.26233224806587
H         7.98354446681464    7.41576953924009   12.82259163444361
H         8.62586164336260    7.36125031634668   14.46646702884775
C         8.08031388989124    9.86340799170308   19.00271948489734
H         7.06191763910063    9.45831485507053   19.08099322195452
C         9.05136643130415    8.79457187412434   19.52238777771186
H         9.02678124897209    7.89157163235724   18.91531657668741
H         8.79931629265684    8.53273628207414   20.54647581447833
H        10.06859973551989    9.17634278133678   19.50578997493720
C         8.14227275477099   11.10470709241985   19.89463583088441
H         9.16832122182164   11.41397845054500   20.06914951319754
H         7.69169147074025   10.88273730107077   20.85781321468068
H         7.59917203005014   11.93348577472766   19.45043350580376
C         2.66876754405590    7.97362833727361   18.16728022045064
C         1.54654148071619    7.62669185357754   17.38801039057348
C         0.30180328396837    7.56068052052373   17.98831467195340
H        -0.56004197842699    7.29925372610828   17.39735224238201
C         0.16086487554220    7.79648688698858   19.34394323597747
H        -0.81284406674418    7.74661641536771   19.80455212654309
C         1.27915611529176    8.03975220403609   20.11824108555512
H         1.16439943635195    8.17320603607679   21.18138506913496
C         2.55327611652225    8.10965699819584   19.57295400617023
C         1.72971941811180    7.13945365701203   15.97318435681275
H         2.75729277176033    7.35077344347143   15.66232290349847
C         1.56593815165014    5.61426660108159   15.95473367201192
H         2.27861659586851    5.13865795351003   16.62537315940398
H         1.73509843242424    5.24120428377887   14.94853043184640
H         0.56367414764119    5.33165334423692   16.26420571013920
C         0.76010572552416    7.78737087923116   14.98609006713913
H        -0.25259003789347    7.42704727839357   15.13869434649498
H         1.05695463567731    7.53803714566811   13.97082820807531
H         0.75413962050940    8.86973147012627   15.08729269269441
C         3.71764166830624    8.34667507116071   20.49940785153859
H         4.61135752993380    8.61228824293747   19.91819686970137
C         4.02648139032888    7.05472008966616   21.26758697389517
H         4.89270487738506    7.20315493036127   21.90674566304695
H         4.22625944224751    6.22048436518020   20.59775815910318
H         3.18090783144267    6.78168821586431   21.89305682616054
C         3.46000308711695    9.49155716299661   21.48099879417164
H         3.06662879441696   10.36467052608144   20.96902995059948
H         4.39142412235086    9.77373920869324   21.96342202910465
H         2.75804478233324    9.19653510810801   22.25499120626086

