59
CSD_code = DETTAX | q = 0 | S = 0 | Stoichiometry = C20H33O3PRuSi | MND = 8
Ru       -2.37156877661077    5.77801648472837   12.09106810782260
P        -1.11749720009636    3.82969308607986   14.53249876281209
Si        0.34142633853235    2.65390259505249   13.24381876155551
O        -3.19761626360822    3.23535861707372   12.89925755927413
O         0.12857860244404    6.97435367907463   13.23236917851738
O        -3.87791307779889    6.54793404316675   14.56518395621231
C        -2.31857483964455    4.02834935152812   13.14748354001726
C        -0.79976115738107    6.43689276771253   12.81849101159707
C        -3.29531589578133    6.26691727467464   13.61563429967172
C         1.19424857889572    3.99264406306788   12.18566177504395
C         1.66732529412938    1.86023096327382   14.36990138292907
C        -0.40047014171304    1.32567073737127   12.07105693261662
C        -1.95425929334478    2.55705220263351   15.66847662275671
C        -3.29527210726056    3.16727773193875   16.08092422570224
C        -1.05220834648881    2.43804509705862   16.89801648314685
C        -2.17680374137826    1.18860387169586   15.03693543077543
C        -4.02737766028054    5.40093097272395   10.64016000433169
C        -2.91210862643972    4.65686049188488   10.15858112891226
C        -1.84206886366103    5.57343663581152    9.91448332567515
C        -2.36185658428303    6.91102939807494   10.09707250564870
C        -3.69839824280620    6.80483154242655   10.54833796101643
C        -5.40749165990751    4.83299563785642   10.81348093456093
C        -2.94957305305619    3.20028010480040    9.81151119753851
C        -0.60306633298635    5.26666038660438    9.11604773017894
C        -1.66769060468283    8.16817084190438    9.66174181164574
C        -4.67437486922578    7.93671381738110   10.67964259304163
H         0.45407850336034    4.56168871823573   11.62625187332213
H         1.89514922468375    3.55795941336823   11.47994128992647
H         1.74105595934839    4.69238431753062   12.80938065911033
H         1.30495683635832    0.97452306574025   14.88076047787024
H         2.01198133135804    2.56361000739837   15.12070584354900
H         2.52473787787918    1.56554619525207   13.77480724981786
H        -0.31762402297974    0.32543983380310   12.48528731665435
H         0.10855824793966    1.32558971550064   11.11112640147796
H        -1.45290308685126    1.51814655769842   11.88907093323352
H        -3.97042667586750    3.22094064887494   15.22936515918907
H        -3.15332149890018    4.17445007782389   16.47232326805583
H        -3.76542978991163    2.55962881962358   16.85320843077042
H        -0.08400307069993    2.02048024288387   16.63152084746206
H        -1.51500449428478    1.79172162713467   17.64288671877706
H        -0.89185324201711    3.41860097215998   17.34348247307885
H        -2.75284988968652    1.28120179072830   14.12051545879461
H        -2.73478055883268    0.55598817957667   15.72748023548990
H        -1.23043608261470    0.70122583302308   14.81568345247433
H        -6.04523005582601    5.50714141433525   11.38182119305598
H        -5.36666957277883    3.87887293246780   11.33658905695627
H        -5.86664159501301    4.66850207343837    9.83565018200911
H        -1.95261396443666    2.81116346330849    9.61754470906567
H        -3.55820608904676    3.05906603651248    8.91563123266752
H        -3.40028103737743    2.62102200233620   10.61700896499371
H        -0.27096731056384    4.24248802485817    9.27318689478720
H         0.21592699749910    5.93487280883149    9.37691380537955
H        -0.81822624079090    5.39564130000865    8.05248023684989
H        -0.59218880104558    8.10060095681574    9.81516681207247
H        -2.03684794232748    9.03388944535813   10.20795948613324
H        -1.84823223226523    8.33490435580578    8.59698730482444
H        -4.17824076780190    8.85426463587545   10.99069925924026
H        -5.45370984890654    7.70799644344882   11.40393423746602
H        -5.15156858318109    8.11839569453153    9.71369131251891

