66
CSD_code = DETTIF | q = 0 | S = 0 | Stoichiometry = C28H36OTi | MND = 12
Ti        0.97577173747484    2.89795372774161    6.31442477107815
O         2.24402548958458    4.03367617771627    6.07332224867632
C         2.55950457438440    1.62111482942716    7.35149899651673
C         2.43549878168383    1.17840006398122    6.00930140793449
C         1.12806116659414    0.63057308196479    5.83697294499926
C         0.44037105646954    0.75979212045637    7.07106304393699
C         1.30865262792841    1.40215653484962    7.99709384838905
C         3.83265534801692    2.14478735312234    7.95086336272123
C         3.54006852011445    1.20944246314075    4.99465583795254
C         0.69244745515452   -0.19299759087998    4.65984703509779
C        -0.83533679408013    0.08117370440063    7.47907564316632
C         0.98211928252619    1.57407569376677    9.45582678140027
C        -0.30131765256887    4.76218545016620    6.25937262282182
C        -1.04996607000184    4.68238901421206    7.44376378799246
C        -1.97092961926916    3.60545445724596    7.32033309741154
C        -1.78783754647215    2.98626555439131    6.08387734822864
C        -0.74059783843846    3.67821804962948    5.39624046018404
C         0.13635200599194    3.12887232628833    4.39002283562873
C        -2.68213112128448    1.96680990992703    5.44398148201691
C        -3.00445779832648    3.28311573638485    8.35559495937350
C        -1.06112668761160    5.64771549046201    8.59018037453849
C         0.66390572778503    5.83087493216168    5.82790355259122
C         2.13631868802117    5.40868855393626    6.16776882363730
C         3.11274512726916    6.05274773849250    5.16785473613033
C         2.41756892638334    5.83504821032735    7.60478800708837
C         2.04434952370451    4.97281821135717    8.62979111533933
C         2.25196678473574    5.31418667129256    9.95371621428828
C         2.83092848132297    6.53079199403017   10.27341767762670
C         3.19227243092822    7.40110751214249    9.25998026913267
C         2.98759295943040    7.05880054440852    7.93400470869378
H         3.71795431683254    2.35778814738290    9.01234722877261
H         4.62691289143743    1.40452754198045    7.83476745756848
H         4.14789971925197    3.06205699798016    7.44739045398773
H         4.07802069712079    2.15708572972967    5.05674949407864
H         4.25075958486441    0.39850893488716    5.17454309819834
H         3.14528856210583    1.09995128408479    3.98544428904209
H        -0.39231211895021   -0.24207822330775    4.58383752917208
H         1.06469645491642   -1.21502524663109    4.77096102664333
H         1.08832512936138    0.20581577388377    3.72662271333567
H        -0.60246418891245   -0.76578904030929    8.13162870378723
H        -1.37513050806376   -0.30316291991308    6.61795655523900
H        -1.48889058064547    0.75524078060133    8.03273236470991
H         0.06406015989884    2.15324446843031    9.59245149234387
H         1.79008489025191    2.07228970456073    9.98971208905398
H         0.82610381977048    0.59611598741622    9.91951070743655
H         0.68720740487689    3.84395816642719    3.77266073162338
H        -0.26453455082030    2.30213301464101    3.80653808658863
H        -3.44906159058036    2.47355414164739    4.85181041650562
H        -3.19052460782827    1.35278819644350    6.18410472885291
H        -2.12578376619089    1.31594050243251    4.77086976360348
H        -3.51727291847156    2.35101300598044    8.12866232888511
H        -2.55566812417956    3.20038719764790    9.34696502978748
H        -3.75434442561749    4.07547941136531    8.40203860107297
H        -2.04564583987359    6.11341971791531    8.67340804976399
H        -0.31884291060000    6.43136502121695    8.45686715576190
H        -0.85677911758192    5.14497354378588    9.53695291899231
H         0.43839908049450    6.78648658646411    6.30900228347611
H         0.58526352791064    5.96756710923651    4.74395580741978
H         2.90075416507925    7.10938457848123    5.03027246173937
H         4.13818705484467    5.92766243005118    5.51018616099885
H         3.00267795612176    5.54147132305269    4.21171692986143
H         1.57372233288031    4.02587728587578    8.35969917415579
H         1.95623671547365    4.63499058449966   10.74125890146576
H         2.99491657575151    6.80161904984908   11.30604673231070
H         3.63761742850097    8.35525463315182    9.50185483229534
H         3.27409121311679    7.75536606251607    7.16153570687797

