63
CSD_code = DETTIG | q = 0 | S = 0 | Stoichiometry = C30H24MoN2O6 | MND = 6
Mo        7.85414115404946    4.75500458586100    5.81930986276647
O         7.95959519451940    5.11118405288268    4.21772960894302
O         6.31117816541294    4.84619038875294    6.38332311183994
O         8.39708434411305    4.01987492916216    7.81452412978894
O         7.94347444577069    2.86020713529467    5.64849766760588
O        10.09025708197589    4.65688541336773    5.76461780609200
O         8.47943364926167    6.42618870425133    6.46790275377119
N         7.59611662180073    2.21457762205159    6.80002255526961
N         9.63077685574589    6.82624397550616    5.84662490370509
C         7.91728868673366    2.86631764686619    7.92203298555934
C         6.88666507119702    1.01266439565040    6.64357723381718
C         5.83506977373899    0.67751036931760    7.49311180679791
H         5.53373539270300    1.35809358007509    8.27444881480982
C         5.15844376693143   -0.51366298332416    7.30002126604030
H         4.34382018275252   -0.77463153328592    7.95878123049497
C         5.50428028093223   -1.35778600218063    6.25722122905620
H         4.96710790301972   -2.28240932233016    6.11045054095020
C         6.52440375326407   -1.00140840554402    5.38961769437210
H         6.78189137339860   -1.64648064757114    4.56334903725852
C         7.21528669362762    0.18065483074680    5.57615722060801
H         8.00351374159125    0.48451610417795    4.90403561032069
C         7.81629825009493    2.18846025386479    9.20893116109988
H         7.70081561638992    1.11597834119128    9.19096035259157
C         7.90209995276071    2.88989157560679   10.35052003972833
H         8.01329205496775    3.96368921061896   10.25870644491119
C         7.85259814562540    2.36960263249235   11.70053505560804
C         7.99552842145355    3.26102240279687   12.76886389521930
H         8.13713997447491    4.31176022174079   12.56184932979908
C         7.95985781378819    2.81498309168109   14.07531874604247
H         8.07320614945587    3.51740703343385   14.88777500937249
C         7.77739455398070    1.46800825284361   14.34418522814804
H         7.74825070410996    1.11725350697709   15.36494939181963
C         7.63030631935058    0.57190429279326   13.29651282996676
H         7.48568726396593   -0.47832846159359   13.50354742515136
C         7.66682808134826    1.01393328889751   11.98904746745594
H         7.54752342022296    0.30323473039968   11.18597569057759
C        10.42233753742091    5.82410133922913    5.44804364655614
C         9.65106446194566    8.18412919378135    5.46746001629653
C        10.76610184641816    8.98876941485966    5.67669321270761
H        11.64755905860849    8.58381191467261    6.15107052561915
C        10.72288015413234   10.31833397536687    5.29232434340767
H        11.58640896383636   10.94717019666470    5.45043238701445
C         9.57572055695861   10.84552938025293    4.72276763712274
H         9.54929412032332   11.88428309091159    4.43019191447984
C         8.45920866569027   10.04390542008974    4.53882229518891
H         7.56339758990817   10.45683333075721    4.10118475743645
C         8.48920775478564    8.71325639654683    4.91090133553964
H         7.63650636588433    8.05677054700808    4.77745650596237
C        11.63315270661636    6.11165870137617    4.69125694608996
H        11.75858569656362    7.11848829990376    4.32814787237609
C        12.50891482394488    5.13073796960044    4.41950958466439
H        12.28422961339319    4.14854440800636    4.81773453368284
C        13.73424852557875    5.23959001283126    3.65685433288055
C        14.16985818165875    6.43678169858199    3.08029304112047
H        13.58086704505796    7.33376593629519    3.19179081329886
C        15.34897289500977    6.48389166638297    2.36366474006739
H        15.67190034571724    7.41586778900433    1.92346819729181
C        16.11971134961655    5.34232587605101    2.20511536240957
H        17.04100384390581    5.38436080269053    1.64363622310710
C        15.70186787451929    4.14786719865265    2.76938158053782
H        16.29783365806284    3.25539146629890    2.64779603724004
C        14.52331847090099    4.09715796357939    3.48727704103686
H        14.19945703900585    3.16414079713143    3.92508997950773

