65
CSD_code = DETXAB | q = 0 | S = 0 | Stoichiometry = C19H38Cl2N3OSiTa | MND = 6
Ta        4.62462425997777    1.74426267078261    0.25136955256350
Cl        3.09835369585615    0.57613079562355    1.58361632208407
Cl        4.79693277108087   -0.05666416545580   -1.16151626555640
Si        3.76916592774204    3.23525690027000   -2.20141474335916
O         2.67678551557912    2.61364085388148   -1.10057407431195
N         5.11465760314470    3.17166611152784   -1.14506203945890
N         6.04307128419621    1.48978977006781    1.30976811860755
N         3.83504598716217    3.63911721468165    1.65637514231464
C         6.45630212179268    3.63769707288008   -1.45503148578378
C         7.03288774376668    4.32680400739167   -0.20845984852155
H         6.50317882735182    5.25599532525455   -0.00975359738463
H         8.08590694076785    4.55152497676763   -0.35538193229838
H         6.91615245543633    3.66430443773799    0.64443559519797
C         6.51666444274955    4.63195838050511   -2.61890383608899
H         6.10482199659210    4.19498901828961   -3.52297949656639
H         7.55165309362572    4.90789451594393   -2.80721102828295
H         5.96190674726349    5.53440107390746   -2.37912530091262
C         7.32851322945986    2.42260686010902   -1.80794381569916
H         6.90376435208330    1.90424858205640   -2.66428431251147
H         7.34393324453459    1.73802382996921   -0.96243847056763
H         8.34317326624886    2.73183192782806   -2.04712816932174
C         7.00152299586423    0.95512508744238    2.19643777395123
C         8.31899897883407    1.75158888143024    2.19051330144190
H         8.73066936163831    1.77957862157359    1.18603001942351
H         9.03890252466878    1.28238360494318    2.85611743315454
H         8.14156718441474    2.77018218338218    2.52504924800073
C         6.40198426593457    0.96339774888709    3.61731210356883
H         5.45285555240309    0.43382920194260    3.60210840798219
H         6.22824363665825    1.98864386216465    3.93475724722908
H         7.07554130068595    0.47849228792216    4.31860048175147
C         7.27611414165924   -0.49969370019033    1.76533234017823
H         6.33383535160267   -1.04196162058174    1.73669654344569
H         7.95769808440030   -0.98559292282530    2.45820521271886
H         7.70566337966462   -0.50888818677264    0.76708766612098
C         3.70104873448318    4.85164193539990    1.13720319392273
H         4.03275787348801    4.95577038961081    0.11380400011171
C         3.17608878865221    5.91956877392455    1.84637013638934
H         3.08027432974717    6.88762463547011    1.37985384729764
C         2.78042377637393    5.71523387028772    3.15914124299739
H         2.36412435156400    6.52290820961372    3.74261434263358
C         2.93323031302753    4.44991692424163    3.70410779213177
H         2.64356238313260    4.24314681527590    4.72183155900445
C         3.46338310178404    3.44165391724871    2.91508464661253
H         3.59008026153042    2.43549969435503    3.28710652690880
C         1.31556356836259    2.21359432857110   -1.24493333299721
C         0.62281359840993    2.51288465717066    0.09142080997411
H         1.10850961544417    1.96369990622459    0.89553631461583
H        -0.42181111856262    2.21755690071783    0.04684489562096
H         0.67940925663409    3.57880206465146    0.31006617639129
C         1.27910438592873    0.71111582655763   -1.53741054760798
H         1.75743724088521    0.15966789368152   -0.73033831462636
H         1.80956803203218    0.49686032230369   -2.46232062569136
H         0.25171353009851    0.36844158080711   -1.62874031312915
C         0.60172483124271    2.97653685764799   -2.35914183924902
H         0.62425292849499    4.04485802511484   -2.16314848828459
H        -0.43560974340793    2.65418561323601   -2.40711663606481
H         1.06840183487665    2.78276820425003   -3.31997446347553
C         3.92324439786511    2.16132781489005   -3.78271881682170
H         2.98909408091789    2.09059943929311   -4.33356822135972
H         4.24130914672219    1.15064587273346   -3.53949171977380
H         4.66090419331676    2.57970458406682   -4.46111842779240
C         3.16252112816544    4.97398091811440   -2.73587841418732
H         2.41872901038529    4.89375660801408   -3.52082473959488
H         3.97231601842010    5.57026063683158   -3.13533441369683
H         2.71703788514584    5.53082157035766   -1.91603026336702

