47
CSD_code = DETZEI | q = 0 | S = 0 | Stoichiometry = C16H22N4NiO4 | MND = 4
Ni        1.53159908403840    3.72506437044881    7.34286636447770
O        -2.88504251351244    0.91006125366159    8.65973168483544
O        -3.05737637219867    2.77556339144147    9.90705497087805
N         0.37868842929084    2.39120179166932    6.66040500137960
N         0.04690062323510    4.61005791217400    8.12022742832885
C         0.71642427333894    1.76006346926931    5.39461060310019
C        -0.68694692273213    1.98031421604750    7.27798419511850
C        -1.32535379280484    2.65924919379023    8.33147480591241
C        -0.99522916457633    3.99771071773394    8.59918955814457
C         0.07846415575021    6.06180851463497    8.19939279888020
C         1.95475343744378    0.85399535484721    5.47774972834368
C        -2.47237162186049    2.01429827450887    8.94654076296110
C        -4.18315364988064    2.19204638749557   10.53850214620873
H        -1.19956818583940    1.08446088711132    6.92515294841679
H        -1.72077530175883    4.56868455976777    9.17795506904770
H         0.91219835308580    2.56030181648907    4.67176571967951
H         0.33448525402396    6.43833517251068    7.20237847267065
H         2.40057623451059    0.78890371762662    4.48447061348774
H        -4.49337591663120    2.88863931447162   11.31381130085576
H        -0.13485268451138    1.17357618553153    5.02789357832984
H        -0.91505697983633    6.44744569162183    8.46047755965973
H         1.66355150226592   -0.15145842896934    5.78376924120832
H        -3.91802512525513    1.22602221823261   10.97393827215891
H        -4.98926266311061    2.03896502217749    9.81695377944697
O         5.95036340343220    6.53850204968281    6.02868885823601
O         6.12242930959495    4.67316887323779    4.78097082637257
N         2.68454223746140    5.05878427451740    8.02563957694636
N         3.01625374572457    2.83980440359077    6.56566930774020
C         2.34638861588896    5.69022128804746    9.29117346043122
C         3.75073598658421    5.46914242796989    7.40867706934581
C         4.38930073028695    4.79013784076905    6.35531880932945
C         4.05876711727535    3.45188574929263    6.08718476512804
C         2.98429536224070    1.38806319253730    6.48622029001092
C         1.10800941615163    6.59620649161647    9.20768985800298
C         5.53690484833460    5.43474800332992    5.74095839790876
C         7.24944406215327    5.25588338538452    4.15098406468187
H         4.26320344276406    6.36512745532307    7.76139735201633
H         4.78435302199142    2.88073873091395    5.50864513402451
H         2.15047742511095    4.89010081892189   10.01411024254724
H         2.72808937579982    1.01140094245380    7.48313909800237
H         0.66217525902327    6.66157550520238   10.20095363273512
H         7.56005030853568    4.55913854772660    3.37595762923467
H         3.19758862142171    6.27676145239638    9.65799799953172
H         3.97774207453460    1.00221368419637    6.22516217035452
H         1.39916849340725    7.60158689017519    8.90138326935339
H         6.98557999041720    6.22215752063326    3.71535103148077
H         8.05478669938998    5.40823946778664    4.87353055305264

