49
CSD_code = DEVFOC | q = 0 | S = 0 | Stoichiometry = C20H23BN2RuS2 | MND = 9
Ru        0.73639362342933    0.23754281329412    4.64391582195241
S         0.98808091509258   -0.48189458980158    2.34389971601876
S         1.44420731795811    2.45393875264878    4.11080285989122
C         1.82602636928587    1.75577654160974    7.52426276595716
H         2.34763658006378    1.47795017426082    8.44218301713619
H         0.94374093691320    2.33649096977825    7.78600184913166
H         2.48996386748591    2.38455721637013    6.93176936745939
C         1.44697774160979    0.52175310668970    6.75575215911180
C         2.46001783502510   -0.24990557715637    6.12295679576344
H         3.49177107210689    0.07353654755335    6.18544367273556
C         2.12647027852969   -1.41728131044938    5.44557303149488
H         2.90383887223967   -2.01082954990747    4.97630016853190
C         0.78111424670110   -1.89210928278596    5.40624549597409
C        -0.21137035799957   -1.16787591913592    6.10135692899287
H        -1.21556335809781   -1.56455309011801    6.19404958220556
C         0.12015834696351    0.03746201894742    6.77548432881254
H        -0.63187736953331    0.54794288130085    7.36849420296581
C         0.52824848998946   -3.25843234652300    4.80221762278860
H         1.15014618510211   -3.34670065664332    3.90196725984433
C         0.97502789199676   -4.32717748162298    5.80796800302828
H         0.38801448229499   -4.25095541415749    6.72186795373268
H         2.02524536610902   -4.20585377631816    6.06438719723882
H         0.83455406515462   -5.32089007147663    5.38844896384689
C        -0.92466770467646   -3.50075260447116    4.39697981328205
H        -1.56555474440081   -3.59743453139291    5.27094106947934
H        -0.99689826480300   -4.42296374048311    3.82444981668122
H        -1.29454088270795   -2.68625717489479    3.77953851672236
C         0.27848012501279    2.95166213465918    2.98897944042383
C         0.44705443321998    4.13016663918013    2.23472135126483
H         1.33218211068229    4.71736013668533    2.41595056334026
C        -0.48159963361311    4.47809034268377    1.29426081438937
H        -0.35916264472984    5.36858518051064    0.69715301411148
C        -1.60312636858299    3.65351452042841    1.11215111330415
H        -2.35466061232244    3.89108371068916    0.37784483748937
C        -1.73152305972015    2.53863017870414    1.89655490962201
H        -2.59067676830140    1.88945477793875    1.80563046116837
N        -0.82187634134971    2.18448501619001    2.81320547357504
B        -1.06871813008227    0.94179185736654    3.76313241372376
H        -1.93499081335713    1.25239066754272    4.52750987618432
N        -1.57293647413658   -0.17481611757848    2.82885506427846
C        -2.86442779038407   -0.53108560728896    2.72553494223414
H        -3.52904307676031   -0.07050117408207    3.44166382745390
C        -3.31359177769061   -1.42161777640028    1.78630233526215
H        -4.35416106396597   -1.69887329977754    1.75398648801831
C        -2.40035671549987   -1.93600291658315    0.85353578745951
H        -2.73426195029570   -2.60731421303990    0.07801192408121
C        -1.07649160841995   -1.58837534820343    0.95910289702002
H        -0.32696100505588   -1.97913311192034    0.29079881113962
C        -0.65541263656080   -0.74897950282235    1.99985567373587

