77
CSD_code = DEVFOA | q = 0 | S = 0 | Stoichiometry = C30H40N2O4Zr | MND = 6
Zr        1.55005657263221    6.21305269836997    4.47995044190933
N         0.37384071524262    4.28837259215628    3.74463750264569
N         2.70767718048585    5.20240179877424    2.55687886397633
C        -0.59007416992207    6.72844925696851    2.36489576939632
O         2.84332786234025    4.94998564449811    5.28362347033056
C        -0.17109105622936    8.81907790045019    1.03841439088401
H         0.20348626967174    8.73789307145498    0.01775519076343
H         0.67628111764984    8.84669163588508    1.72225409227376
H        -0.73195486340999    9.74903887811150    1.11981345898343
O         0.57881173827222    6.90788889489744    2.93546095644984
O         0.28711785364408    6.17880426808008    5.94184279469785
C        -1.04977937304562    4.65185362413922    3.75688883681572
H        -1.25180294690919    5.09328086357844    4.74447398159729
H        -1.67116935393756    3.74385067711688    3.64616762936364
O         2.62080491804883    7.80733496327262    4.61655859395845
C         3.09872414788498    3.69713344871464    4.99231525519243
C         2.25220747156602    3.99116127485482    2.22260963403702
C        -1.04035713407737    7.64208349375929    1.37873817149307
C         0.63917042971520    3.28612306644397    4.79061923466698
H        -0.05493568227710    2.43304993893765    4.67971588793754
H         0.46237420439745    3.77092180451213    5.76181660709245
C        -2.25486703712847    7.45098211600935    0.75242211269995
H        -2.57589641597922    8.16499802162637    0.00580478674534
C        -3.07550536856597    6.36844898897641    1.05180861337728
C         3.98157380680265    5.48842597733410    2.31720715231659
H         4.28810016487049    6.49875117809158    2.56397635577528
C         4.43096253595277    3.21960139110789    4.92685647029250
C        -2.64105615100654    5.47412349539950    2.01477700664250
H        -3.26553222892908    4.62705880443636    2.26966092601797
C         2.05547884548315    2.78588535748125    4.71975747413820
C         0.77913991488218    3.76883617575936    2.43935962511632
H         0.23635924839081    4.33196058684581    1.66742853183229
H         0.53055747798660    2.70066217383082    2.33145899628642
C         3.07121240673800    3.02531932549686    1.64055211918233
H         2.66857228920697    2.05944675783505    1.37888809494072
C         4.40433065556308    3.31892723800023    1.42695883824130
H         5.06628856196066    2.58233367788680    0.99721485565251
C        -1.42947736712172    5.63394835637581    2.67604936006023
C         4.87104342691351    4.58178683706263    1.76321644318667
H         5.90048483022318    4.85602579237730    1.59605082277733
C         2.34083709754149    1.46785153858043    4.39220272456715
H         1.52342840705491    0.78439354622887    4.19879832297674
C        -4.39080316480072    6.19187261711746    0.35100826739414
H        -4.87040241019258    5.26444826824774    0.65434310247134
H        -4.25109391212826    6.17402273462699   -0.72936237556425
H        -5.06114949623907    7.01873177355967    0.58509788431284
C         3.64429625808665    1.01006589739136    4.30474321881805
C         5.55233823915120    4.16473391332331    5.24415030910788
H         5.73436449605089    4.18151087261831    6.31936342071579
H         5.27769575662310    5.17367416384487    4.93932659922941
H         6.47060934232273    3.86351903510202    4.74425982989920
C         4.67324547924662    1.90669560662438    4.57966007113011
H         5.69716412990450    1.56173176146915    4.52245889010395
C         3.95413011557639   -0.41164894928731    3.93784807628881
H         4.69813780560040   -0.45049485458949    3.14326856496461
H         3.05901378832902   -0.93080775309506    3.60398471912771
H         4.35872307258109   -0.94680116685896    4.79693594855724
C        -0.25592654951783    7.35254906022953    6.45174074148787
H        -1.12652273403867    7.08190289085318    7.08725401268027
C         3.91525087985302    8.01670526117769    5.06326088815684
H         4.63379293401545    7.46037749774146    4.41476274256438
C         4.13745716840603    7.52670701312096    6.51007757773703
H         3.74213322458764    8.24724637491068    7.22367391991863
H         5.20123395706939    7.39894241020084    6.70509097952628
H         3.62478435359151    6.57019005380804    6.63907420337733
C         4.26639323697199    9.51246254239622    4.95511159697483
H         4.14510282706347    9.84292948890522    3.92573267488018
H         5.29092733976258    9.69247811078710    5.27252262190400
H         3.58915104022417   10.08975106038803    5.58151426664417
C         0.77654522493652    8.09917978698978    7.30932907120826
H         1.17925035529087    7.42680156006404    8.06662776809223
H         0.32836688020911    8.96220627032170    7.79873370378350
H         1.57794816433340    8.42187150304096    6.64253720750637
C        -0.73117042529005    8.28890169635860    5.32473825804282
H         0.13377657008706    8.52489483906102    4.69133817534635
H        -1.14439713646635    9.20695375736934    5.74095160182326
H        -1.49821781373546    7.80217777047131    4.71956106450419

