53
CSD_code = DEVFUI | q = 0 | S = 0 | Stoichiometry = C24H22ClN3RuS2 | MND = 9
C         6.00286444300161    2.56672668874161    9.12385120801662
H         6.18988377759348    3.50794869976842    8.62701745559876
C         7.03284776037886    1.73538530642283    9.51447259503144
H         8.05127240839442    2.00888308121840    9.28301101773525
C         6.78302616808402    0.55835410027827   10.21413632200953
H         7.60644802054301   -0.07618173298391   10.50432095373745
C         5.49330031106751    0.20480535563976   10.56658138659728
H         5.29066883911054   -0.68891031717390   11.13434915884530
C         4.45724575247729    1.03721744312735   10.18356506823539
C         2.46884629570573    2.38684689393518    9.65624874546517
C         4.69440809745916    2.20489656694465    9.43641810996988
C         0.94553581113154    4.02486682460698    9.11309668342984
C        -0.25426015266737    6.08268208311679    8.49328105649175
C        -1.03543443177541    7.19103676266867    8.22076501692767
H        -2.07325442716785    7.20875541871394    8.51147726226901
C        -0.44663385015908    8.26742354579032    7.58284947815238
H        -1.03733997103449    9.14334941864915    7.36291753025528
C         0.90335281285636    8.24330569007368    7.24519317337093
H         1.34897031265299    9.10841106956690    6.77821226840630
C         1.68597427699393    7.13781565974085    7.50889204918429
H         2.74502670531809    7.12791071230352    7.29643979455746
C         1.10064829862667    6.03140225879831    8.11982315186703
C         4.88229055650320    3.10466724658875    6.09769904125443
H         5.76483538412500    2.49806853544457    6.26928220132351
C         5.01231892325246    4.48067711780553    5.85284619228153
C         3.83722275589341    5.21347477652141    5.52449284343276
H         3.92496912409554    6.25814581461754    5.24627344473993
C         2.58718912830290    4.57834596003591    5.46813238780058
H         1.73068229579400    5.16363651450734    5.15523698899011
C         2.44224741763728    3.17870135337172    5.69745215252914
C         3.61287874272415    2.47359822992052    6.04027918333792
H         3.57533198968685    1.39762994010205    6.16883034518176
C         1.13742603829756    2.44454790940408    5.44620531784739
H         1.24631164826256    1.94956759767069    4.46880836227538
C        -0.07229009681749    3.37749079001571    5.37018814513183
H        -0.16532780662352    3.96425798651489    6.28181606823704
H        -0.97791615241573    2.78640935126049    5.25811653751760
H        -0.01031249693908    4.05121470143741    4.51829854195645
C         0.86878035639026    1.36114530847220    6.49596621734158
H         1.62999044900532    0.58562149384971    6.48881671372014
H        -0.08715463152598    0.88504210164622    6.29342789252189
H         0.82423042390359    1.79506865833492    7.49215749914642
C         6.33794778657760    5.17271952197037    5.90608682691103
H         7.15618703537603    4.45667814538700    5.92913559077957
H         6.38216895492623    5.78189937754608    6.81319232149968
H         6.46188666624795    5.83432806875253    5.05020432829855
Cl        4.60177711221268    5.73827881890157    8.85572744394258
N         3.56137670837537    2.90621934140196    9.12213293949317
N         1.23505162601553    2.84931563089807    9.63180737436962
N         1.72571044765288    4.85665316663922    8.44237061235532
Ru        3.45088516713503    4.19817169590206    7.51900619522345
S         2.74965531285175    0.88710729079676   10.52540640386538
S        -0.69954812552710    4.60658602433651    9.31778440053365

