50
CSD_code = DEVGAP | q = 0 | S = 0 | Stoichiometry = C20H24BIrN2S2 | MND = 8
C         5.10374405172602    1.46881112981844   10.26485539517522
C         5.75384447727576    1.18323731579073    9.04682337303560
H         5.99803654792354    0.15418963631130    8.84039127869328
C         6.03083839202783    2.18875210352531    8.16456285156345
H         6.51448903254484    1.98227480328668    7.22235236591094
C         5.67128489630033    3.50426783657287    8.50078472334101
H         5.86865619041356    4.32322728713432    7.82959891115146
C         5.07085765735861    3.72997600543229    9.70969154642975
H         4.79899792140843    4.72895289747304   10.01886956267328
C         1.92951149975236    3.71559214954798   11.25510469404438
C         0.96648724960945    4.65719541815783   10.85770188791154
H         0.06663559153221    4.29263024745505   10.38966497586943
C         1.16220875812754    5.98899711107787   11.11481793488972
H         0.41620226085659    6.71930229016065   10.84252803626839
C         2.34168899056096    6.39042439377379   11.76161473463236
H         2.51546034744967    7.42534596890024   12.00492813121864
C         3.28331245734631    5.44140345987892   12.05802777818462
H         4.22386912155725    5.69697356179987   12.52335541986480
C         3.97217488106369    0.76105716038818   14.82712024284014
C         2.93055657901192   -0.22428667445101   14.57635646358365
C         1.72824283684611    0.44884905415498   14.42703327676810
C         1.98559940075083    1.87258921111860   14.57591697685471
C         3.34629645396445    2.03783530307141   14.96882970960964
C         5.35841160415209    0.41099832580851   15.27165275174629
H         6.03368558661558    1.25273170823951   15.13761260040151
H         5.74419817493046   -0.43315545700090   14.70429003613444
H         5.35486552353635    0.13813837805409   16.32925345720673
C         3.17721908543185   -1.69721259417034   14.54838099146301
H         3.44944575418040   -2.05209482625270   15.54427614657111
H         3.99482205966736   -1.93837889739403   13.87010956177613
H         2.29281076063038   -2.23769403067727   14.22046451595608
C         0.37074004180508   -0.12101937062645   14.17818670606831
H         0.42424343971793   -1.18609291196666   13.96707534486760
H        -0.10305683603151    0.37031811327454   13.32836593366929
H        -0.26840110620093    0.02716337550118   15.05074516556107
C         0.90449114252593    2.90356498678634   14.69323428011493
H         0.45186614887410    2.86255388552200   15.68632510173936
H         0.12002455103665    2.72917533784085   13.95866619486021
H         1.29900106027943    3.90711447266510   14.54117126031342
C         3.96356218280488    3.27142404393511   15.54895239962820
H         3.48272654539370    4.16893926233392   15.16660224106819
H         5.02379445121745    3.32477025639132   15.31607575609800
H         3.85205273053934    3.25999380883580   16.63502070937183
B         4.21326098178519    3.08082988877669   12.01134790680196
H         5.10452584742343    3.55263940155511   12.64347307596282
N         4.78904700894545    2.74930732429770   10.57747236599635
N         3.10651103825271    4.13705198040166   11.79682141795990
S         4.68258050441738    0.23156868796922   11.34046381825163
S         1.65396683047224    2.04454310933428   11.15197592570589
Ir        3.26160929218194    1.39902407017739   12.84275406418846

