21
CSD_code = DEVNOI | q = 0 | S = 0 | Stoichiometry = C6H9N5Pd | MND = 4
Pd        6.86737510310820    4.47791227484467    4.86926001254598
N         7.33868422264344    3.08793404331724    7.56828078123833
N         7.00015385815942    7.38860032084721    5.84457833208540
N         6.53779215088255    5.21200150740362    2.92770209844721
H         6.51032532698480    6.22830393737942    2.83907979461959
N         6.38273792841019    3.19550501959884    1.77158070277739
H         6.24217192219334    2.81280776512891    0.84643433964850
N         6.74445506241405    2.57425552235747    3.98739422860666
H         6.85786124546415    1.78505214590736    4.62440922275135
C         7.17177375637357    3.73313895711146    6.63075600919872
C         6.97289569659160    6.26157181965141    5.61621709063367
C         6.37496246935461    4.57176374279338    1.83699607115897
C         6.15678543227395    5.22540102152475    0.50022113998729
H         5.20289098687806    4.91376121827559    0.07557660376642
H         6.15343626366701    6.30784310179859    0.59821190805501
H         6.94870230230713    4.94401305623682   -0.19340676391832
C         6.55603922950276    2.25818894037751    2.76650399625277
C         6.49792216433363    0.84284653166998    2.26131404081084
H         5.52851792352506    0.64190848709111    1.80612721570070
H         7.26993209558311    0.67503627044135    1.51097952167501
H         6.64918485934771    0.13835431624337    3.07498365395703

