86
CSD_code = DEVPEA | q = 0 | S = 0 | Stoichiometry = C34H47CuN3P | MND = 3
Cu        2.41856609880664    3.72141869410887    4.05930050730842
P         1.24710419396600    1.49674470201559    5.70508249041415
C        -0.19331771784148    4.46894080071840    3.16199704987925
C        -1.16640002735680    4.98560388223848    4.03110174114930
N         4.06525502989372    4.74369224386274    3.97162849414142
C         2.86143188512458    6.52340359374490    2.90780735311684
H         3.01256232720294    7.51444953230398    2.50070166202433
N         2.58112252118543    1.99770581413841    5.01927776833820
N         1.13930626744819    4.87700398182974    3.23179917656487
C         6.61820392958204    3.30528245650754    6.19312696721759
H         6.79764486877112    3.19633065883301    7.25509444131564
C         0.40635067393379    2.89753374292303    6.48996478240641
H         1.01565992850635    3.27305345328169    7.31015232402034
H        -0.57306772522848    2.59721502062623    6.85679166767755
H         0.29668093163194    3.67388918519860    5.73414971602647
C         7.26802812115437    2.92223529054244    3.93378718527175
H         7.96214766753838    2.50374196752890    3.21719563376811
C         6.14641099720229    3.58743522470823    3.47272014913977
C        -0.82996433951045    6.08621574001790    4.99630115645180
H        -1.14432911225375    7.04954527667577    4.59341774609596
H         0.24295441888683    6.13102841184869    5.17459933448106
H        -1.34623721094985    5.93843472763772    5.94389239021622
C         5.24689212802699    4.13303527620474    4.39872563336391
C         5.24900803944749    6.81380092153564    3.42294258850443
H         6.07497595776252    6.33726981392242    3.94608312706589
H         5.03746268427953    7.77272517882353    3.89383711916870
H         5.54837138637811    7.00760144387300    2.39375713660674
C         0.50696745607587    2.88807499694522    1.35941862437427
H         0.14556300171008    2.01382632748093    0.82269266708888
H         1.38838396963489    2.62059291777414    1.95080217525925
H         0.82244688808232    3.64081049254349    0.63726096983727
C         7.52785939226557    2.77863503661433    5.28931583223523
C         0.00135058389730    0.77442107223280    4.56174540054881
H        -0.26677762722895    1.53998073528765    3.83376535476581
H        -0.89139328118828    0.44954112788195    5.09021568267058
H         0.44912392827311   -0.07165283515215    4.04133647960099
C         5.48305957546692    3.97422818535433    5.76972492415119
C         4.49213191035316    4.53174317207482    6.74573142895423
H         4.74227699401899    4.24446764897727    7.76478508332159
H         3.49566769805712    4.16078473414142    6.49542662093428
H         4.46106091802232    5.62009750117669    6.68433771203827
C         0.60140328563832    6.94749870670743    2.04473019500856
H        -0.31872441175899    6.42387933011407    1.79541669677272
H         1.05890332526834    7.31465828641250    1.12821441593609
H         0.35444658948189    7.80972482057365    2.66303776708951
C         5.88738171632427    3.72124668438525    2.00162527729556
H         6.39447715156745    2.93227346199067    1.45164041451681
H         6.24973271784126    4.68119281438912    1.63153179954699
H         4.81805744644205    3.66995353995101    1.80259520446678
C         1.44041359794138    0.20820628691341    6.99748816092044
H         2.01008130287096   -0.62174021958739    6.58123416256620
H         0.46487759720243   -0.14377017140377    7.32431839773586
H         1.98338341007661    0.62458272603254    7.84367128555679
C        -0.54597941060958    3.44214443264894    2.26860016822275
C         3.69620061229184    1.18528666576263    4.75287683286289
C         5.20802217549859    0.18988612693362    3.15636102765181
C         4.01321558047757    5.94179316496933    3.45343334628249
C         1.56327766055655    6.03926262466553    2.77838741618430
C         6.39842374187858   -0.64421665006643    6.66356820978207
H         5.77530004896687   -1.25443105132433    7.31785816505918
H         6.80415530901338    0.17399896881428    7.25642002815941
H         7.22296407916591   -1.25454997972529    6.30303172841928
C         5.59153557627578   -0.09837049179882    5.52300883999872
C         4.46262241967889    0.66398493347113    5.78576618164394
H         4.19063744449403    0.88538885322086    6.80807782067013
C         8.76365586675869    2.06108898949090    5.74670574571258
H         9.65536929796384    2.53737161189225    5.33968999936457
H         8.75027023816970    1.02833347234831    5.40066044249880
H         8.83767763009357    2.06294431822446    6.83172255988399
C         5.95213152580316   -0.33455245260609    4.20730433607508
H         6.83058028140226   -0.92615371635519    3.98952770349968
C         5.61925050635808   -0.08157020181490    1.73970810479023
H         6.67602841705454    0.14215655859001    1.60113759514538
H         5.03811720970836    0.51928025490811    1.04473208891813
H         5.46863665346083   -1.13433892138267    1.49668678829094
C         4.08354342098455    0.94324997395726    3.43804426853939
H         3.49177658277275    1.36506710222554    2.63766135593315
C        -2.45279646036379    4.46946050869138    3.99455837592385
H        -3.19472960481770    4.87424240147907    4.67013577474150
C        -2.81278566980139    3.46027771939647    3.11498813737785
C        -4.21745680059611    2.93541424831229    3.07013411571315
H        -4.77569357939076    3.42127324789314    2.26863358618507
H        -4.73522560979802    3.13012501643590    4.00682448912565
H        -4.22529505503342    1.86377774236119    2.87895191711807
C        -1.84140929435770    2.95734760388297    2.25756707449124
H        -2.10469985412259    2.17133250890472    1.56193770083327

