30
CSD_code = DEVSEC | q = 1 | S = 0 | Stoichiometry = C11H12N4O2Rh(1+) | MND = 4
Rh        4.69711235829052   -3.09631103292173    7.72649227241071
O         7.68230311180002   -2.97254925382352    7.61383811482557
O         4.65147470230034   -2.88629484940264    4.74438025830887
N         2.67902317094504   -3.15778709332961    7.84527167122225
N         4.68203706802993   -3.20491945758924    9.74655639843246
N         4.04163147979634   -2.91845557518935   11.82889294387631
N         0.64004770142214   -2.84206546893383    8.60090774542168
C         6.55027698194742   -3.02443939306010    7.66802004981737
C         4.65856134455367   -2.97229742646265    5.87562911500049
C         1.79561785067985   -3.68379929434724    6.94385045778831
C         0.53003650838778   -3.49168407516004    7.40622476561841
C         1.95332742450151   -2.65975358464227    8.83864687360606
C         2.50997566834448   -1.99354885269866   10.05789209062571
C         3.74014305932671   -2.70088419758822   10.53418755064796
C         5.22444240173242   -3.59760720440506   11.86179402282872
C         5.61513964577992   -3.77178574775378   10.56973643932342
C         3.28396164974147   -2.50700698331776   12.98072753687367
C        -0.46091298928354   -2.42399417535471    9.42741254525727
H         2.11488417767624   -4.16460806466920    6.04011346055022
H        -0.41643650107871   -3.75900150592590    6.98523385078062
H         2.76169648755978   -0.95166649441245    9.81806037093733
H         1.75959360229060   -1.98157426543512   10.84901108961591
H         5.68755596312281   -3.89582882634140   12.77891580583220
H         6.48903868529607   -4.26593549100160   10.19298190728774
H         3.11902878824518   -1.42900296994302   12.96850653236496
H         2.32012955849535   -3.01841591441436   13.01442054340980
H         3.84068372934202   -2.76332693774036   13.87913831572898
H        -1.39281406219495   -2.64733521527142    8.91312775893101
H        -0.45598473066457   -2.95747202150607   10.37978327027776
H        -0.41537483637450   -1.35074862735031    9.61594624240424

