43
CSD_code = DEVTEE | q = 0 | S = 0 | Stoichiometry = C12H16N10O4Zn | MND = 6
Zn        1.37562504790218    7.81464820396235    8.70623689141000
N         1.71471476916621    6.55707909848336    7.26918066015461
N         2.58591630524541    2.46809539568683    4.29096473928459
N         2.91021027213085    2.02534525767259    3.12847680508208
N         3.10604584145691    3.04310412969557    2.28664851552255
N         2.91154098184604    4.16117815317301    2.89049826231103
O         0.15365894450955    9.09992223419218    7.29574712897867
O        -0.62756637492925    6.81703604271552    9.11398737929907
C         1.68862003382194    5.21816728655391    7.47130467230651
H         1.44581569794505    4.90057512969534    8.47634504646495
C         1.95498082898459    4.29988089438644    6.50023887080441
H         1.92478572657463    3.24169193834959    6.70305946570942
C         2.28341523004218    4.73225594066453    5.19617130501927
C         2.30195987428659    6.12891187964446    4.98539144297881
H         2.54212633654448    6.50143019542417    4.00285947791689
C         2.02008104267592    6.97345089794447    6.01710255843220
H         2.02338569783663    8.04465538828497    5.86744171215783
C         2.57888652611537    3.82524670360141    4.16856217115932
H        -0.53273454893147    9.60587026536706    7.74211043330441
H        -0.75393586611138    5.90304812043311    8.84136512710885
H        -0.27934711046666    8.59178855541076    6.60251757824606
H        -1.02056091673671    6.91607451914248    9.98668113859464
N         1.03591247803669    9.07121748929468   10.14401849053532
N         0.16235115540652   13.15720712180087   13.12563446082881
N        -0.16270614474006   13.59879514072086   14.28835459184370
N        -0.35853954108645   12.58021436575374   15.12918140670514
N        -0.16328069902538   11.46275326019198   14.52444018743635
O         2.60011764564614    6.53120918988551   10.11584729202801
O         3.37728233469720    8.81401482492294    8.29667698506910
C         1.06177629958416   10.41031523575551    9.94316802903639
H         1.30482101779565   10.72892036520196    8.93850867025397
C         0.79491562272123   11.32763636015382   10.91500557108736
H         0.82497946626898   12.38602001522906   10.71318650697155
C         0.46608850348652   10.89396545503521   12.21854139681550
C         0.44785463091122    9.49710920872217   12.42802864797309
H         0.20745516738744    9.12362784883052   13.41013828629142
C         0.73030033374874    8.65359462949126   11.39563210872819
H         0.72731130999045    7.58224873852054   11.54429773407283
C         0.16988253693683   11.79995205860612   13.24684162040341
H         3.28647884820799    6.02550440042676    9.66915369750445
H         3.50232497537612    9.72840281403938    8.56857140330164
H         3.03333737529673    7.03993417152289   10.80850933236398
H         3.76961234344473    8.71510107541391    7.42367219849720

