61
CSD_code = DEWGER | q = 0 | S = 0 | Stoichiometry = C22H33O4PRu | MND = 8
Ru        3.98551005010496    2.13914139684591    7.66513713006500
P         5.51607751355258    3.09315681430378    6.06937520838390
C         4.73155408840910    0.45586310620120    7.42316595594030
O         5.14047266615006   -0.60546242239774    7.31781042264029
C         5.04448551106282    2.27264354771012    9.16481178760270
O         5.60819420991600    2.29591798365150   10.16836841392126
C         7.11372144406710    2.88892749256976    6.97850610718012
O         7.72325045528304    1.84399986338452    6.94570581722535
C         5.48277047841326    1.69583133910111    4.86639688676860
O         4.48101139959602    1.00011066538616    4.88729997140245
C         7.65061469017494    4.12589312390013    7.69753314392128
C         6.54820071204513    5.10114056495179    8.09700690155872
C         8.56907170678427    4.80391191468112    6.66956013493891
C         8.46477059445551    3.69272244458097    8.91664508023731
C         6.53091799141661    1.52328809503149    3.77804544005891
C         7.46001414560260    2.72682047543662    3.67347395384747
C         7.32305985959374    0.26424869437251    4.15502939075391
C         5.80345388058597    1.30313765392859    2.44650061772439
C         2.31625945522854    2.90950623371457    6.32888037275206
C         2.51755064910877    3.80609155922705    7.44821831829606
C         2.18376670658301    3.09450811417357    8.63626241464678
C         1.86835775876837    1.74273036167188    8.27319349586930
C         1.92311101458383    1.64964517899900    6.83643626205344
C         2.25884549606693    3.33245958542746    4.89299300558995
C         2.65790362844096    5.29574370204302    7.32034330462794
C         2.00800697648613    3.68783615585424   10.00346661088143
C         1.26461611211783    0.72128577918901    9.19006563456206
C         1.43947395070931    0.49723547520831    6.00854527743451
H         5.83085211080356    4.62755842806628    8.76649655326661
H         6.01746031085176    5.45849520894149    7.21553519672038
H         6.98326026685663    5.95905536101654    8.60566495312278
H         8.99075326681829    5.71193581718794    7.09510503750113
H         8.00653094558938    5.06740605211942    5.77553437625818
H         9.38399133163072    4.14036616548651    6.38994637081358
H         7.81540286479542    3.26687881082015    9.67696095322615
H         8.98973476146579    4.54511188206790    9.34168751911773
H         9.19146476037400    2.93763105624755    8.62835159499451
H         6.88518495876104    3.64590440074493    3.56011512723913
H         8.11058235436660    2.61862474598606    2.80794473676409
H         8.08318069908813    2.80626721442708    4.55941469470793
H         8.09370486153180    0.07512728618611    3.41093576213011
H         6.65951849468449   -0.59596088878188    4.20374019818324
H         7.79218858842162    0.39563820036765    5.12692528150634
H         6.51830466380962    1.04475302420002    1.66885774264830
H         5.27420376072187    2.20675867667611    2.14921265309181
H         5.08222051239927    0.49559762024933    2.54317633546696
H         2.40186643466912    2.47968018364298    4.23375196981094
H         3.02524039731931    4.07338973067064    4.66627047593234
H         1.28216689713424    3.77582928112833    4.68441306772707
H         3.06904222031854    5.73500366072969    8.22697444262348
H         1.67806842529394    5.74204340963586    7.13543767572682
H         3.31116144174027    5.55416160885658    6.48865895943504
H         2.62318976208858    4.57617527630902   10.13236243891071
H         2.26776736639297    2.97526386156571   10.78455193193806
H         0.96273188522162    3.97416530782596   10.13991323078263
H         1.47726199583734   -0.29033700166919    8.84999683072386
H         0.18001687490053    0.85023384371345    9.21971399795273
H         1.64698489816056    0.82715258829051   10.20355039168317
H         1.38887822926445   -0.41661345631319    6.59613357169043
H         2.10494806298121    0.32571533298569    5.16472129237969
H         0.44109245037762    0.71645241142337    5.62376757502938

