65
CSD_code = DEWHIZ | q = 0 | S = 0 | Stoichiometry = C28H24Cl2N8NiO2 | MND = 6
Ni       -0.50568880421803    6.48406285018285    5.15004573746811
Cl       -2.30667027568828    6.35981611460965    6.38263222329428
O         4.49237878002782    8.61120003133382   13.31745025914715
N        -0.83204251297810    8.28147662650917    4.85361080738714
N         0.64624563530414    7.37506074567119    6.97278944340340
N         1.32232368669254    7.16607532344769    8.02953627936018
N         1.57991089226058    8.33659225379746    8.61714089073079
C        -1.54702851855890    8.68841148125453    3.81144153018637
H        -1.93054826090011    7.92015344818552    3.15342241175323
C        -1.80419854860151   10.02497471668932    3.55895428069196
H        -2.39201969290756   10.30355305152013    2.69891361845161
C        -1.29914130377203   10.98528128790512    4.42160621665878
H        -1.48080952744821   12.03625207272665    4.25322207458566
C        -0.55617775066109   10.56405657747985    5.50657000890466
H        -0.14223623334605   11.27268742013819    6.20638354439647
C        -0.34008362322074    9.20108749451201    5.69670112827874
C         0.42587177110619    8.70608736992595    6.82316000047610
C         1.03510612231339    9.33918524917260    7.89132641535032
H         1.09004578119809   10.36727185202172    8.17566733254679
C         2.31312311818711    8.40488536440494    9.80796336323862
C         2.91429909850497    9.59014562820177   10.22364677626154
H         2.83846828965475   10.48567137571933    9.62735345803802
C         3.63033037168540    9.61785235848943   11.39878604233839
H         4.10465165716212   10.52516990439557   11.73641728162970
C         3.76707764508364    8.46793602858561   12.18178214778772
C         3.16987784917660    7.28370959093436   11.75558504004810
H         3.25672957769986    6.37790789559869   12.33345251579306
C         2.44908814993195    7.25658772859698   10.57747639202114
H         1.98240789308322    6.34522885061862   10.23971612371209
C         4.67671115839452    7.49073181374364   14.15108580913277
H         5.20590763437275    6.68634060606794   13.63092876491372
H         3.72282141903664    7.11385270830284   14.53304393031670
H         5.28412352160238    7.84163389783010   14.98355829182294
Cl        1.29526540680346    6.60827491697322    3.91749661867694
O        -5.50402000565580    4.35670023691117   -3.01712214861070
N        -0.18011841128000    4.68658972984475    5.44704784458843
N        -1.65821081025771    5.59295527711766    3.32771056937416
N        -2.33421565037668    5.80191921615498    2.27091338348391
N        -2.59169350519803    4.63139630847687    1.68327183521079
C         0.53489889262336    4.27968488668741    6.48920616265604
H         0.91870630203063    5.04797945851965    7.14700683015560
C         0.79228727411993    2.94314050255581    6.74158271481063
H         1.38009936306900    2.66458430519559    7.60163628789610
C         0.28737340235699    1.98281815657090    5.87886063977435
H         0.46887377893000    0.93184266940583    6.04738250079609
C        -0.45565109217528    2.40401028881844    4.79392717151117
H        -0.86959442993123    1.69536057409599    4.09413532993999
C        -0.67190695997732    3.76696533711727    4.60386800399206
C        -1.43776554547105    4.26193856611962    3.47733186461764
C        -2.04687160625932    3.62882124981278    2.40910145758145
H        -2.10177549483640    2.60072905018249    2.12477041374982
C        -3.32485840526747    4.56308025822194    0.49242091012491
C        -3.92597468440787    3.37779742748142    0.07671168573681
H        -3.85018778914510    2.48229058439498    0.67303828729944
C        -4.64198942376205    3.35007462172071   -1.09843687504298
H        -5.11631593518226    2.44275621378136   -1.43605537894469
C        -4.77875585022234    4.49998847040129   -1.88143297356081
C        -4.18158763526782    5.68422947682641   -1.45522808134363
H        -4.26841918901256    6.59001824435755   -2.03311852388467
C        -3.46084284238119    5.71137740907046   -0.27709135980087
H        -2.99415234910247    6.62273659612882    0.06065229673919
C        -5.68835872480375    5.47716007730497   -3.85076787096489
H        -6.21758015701274    6.28154637811524   -3.33062977323396
H        -4.73446644622616    5.85405327589236   -4.23270903306999
H        -6.29574647689899    5.12624051716709   -4.68325093038256

