107
CSD_code = DEWPIH | q = 0 | S = 0 | Stoichiometry = C42H52B9N2PRu | MND = 8
P         6.74957350586226    8.98853442190054   12.58091687257956
C         6.46399801209952   12.00635859692800   14.63974989860646
C         4.20094941718615   11.40958509710855   15.50826657428517
Ru        5.31963968053650   10.17512709444863   14.03889579796303
B         7.25592104751575   10.69904757334958   15.14072015496406
H         8.23033001555626   10.38876516244446   14.53251217393954
B         7.17963785841387   12.29204135187114   16.08750311345666
H         7.96893867253987   13.16704048297663   16.06687451334799
B         5.38630847239933   12.59676301492774   15.80817794217132
H         5.09284836313954   13.73489762099439   15.69599244681067
B         4.58078325902138    9.97555491603301   16.19869664553107
H         3.68898003560153    9.20878134319972   16.36123714039217
B         6.28927290664370    9.52075086927893   16.06653531779846
H         6.62658008636811    8.38097520670575   16.13318198996348
B         7.28674702020238   10.71354213889608   16.95259846500864
H         8.29611633761520   10.41861562115509   17.48816652637396
B         6.20205021861257   12.00921785659443   17.48509816049950
H         6.38893492860756   12.68762950993785   18.43105053774533
C         6.83653788755948   12.90263690649286   13.52796918723871
B         4.55653328353624   11.60140126154199   17.09721575365133
H         3.65629922245169   12.01669186480745   17.73439144915083
B         5.71466463839240   10.31315704508881   17.57361549691957
H         5.54558353982708    9.72125629532604   18.57980032032232
C         8.14723720450583   12.93900905452229   13.03929696236530
H         8.89123773554594   12.28714024863871   13.47204533135386
C         8.51266366929131   13.79988253730547   12.02382353124924
H         9.53425824840540   13.80490076610546   11.67008049070458
C         7.58304094934766   14.65901083277484   11.46271147006280
H         7.86967818207841   15.33738949649167   10.67200378310508
C         6.28304145218898   14.64780702987128   11.94043545608726
H         5.55281370657562   15.32901283063268   11.52253657879618
C         5.91629366545820   13.78893749059280   12.95821606877208
H         4.89927550231005   13.80227117412494   13.32329757015528
C         2.84193370849985   11.80597259215096   15.07486307426584
C         2.35417250664927   13.10559827102548   15.24737866150814
H         2.98590589184922   13.85821050067598   15.69087211482263
C         1.07008140239766   13.45459644315785   14.87189333126513
H         0.73101810618478   14.47111159321934   15.01499053487031
C         0.21583183463476   12.51362504454135   14.32302094252892
H        -0.78795127759871   12.78584196320236   14.03096557398998
C         0.67008523335907   11.21450289708238   14.16010485092816
H         0.01033885867683   10.46263792453929   13.74660661649958
C         1.95666106517307   10.87111081195159   14.52393413158791
H         2.28757660077727    9.85234379197322   14.38119740433369
N         3.74095714914827   11.69101380931222   11.86798487772994
C         4.41094430831084   11.09912053950839   12.62645757731696
N         3.59552730755302    7.66136193734213   13.75206306506879
C         4.21983230736604    8.65101865099980   13.86365150858055
C         5.90691154407851    7.83962649430235   11.40857902966562
C         6.44639228967596    6.62000972004478   11.01472427996024
H         7.36642379728645    6.26498336370624   11.45532691481358
C         5.80338965927040    5.84291210622115   10.06661606947466
H         6.22689072812345    4.89170311428880    9.77847132187476
C         4.62643723443311    6.28066022912908    9.48368224479518
H         4.12822215958129    5.67290482952929    8.74293703018438
C         4.09354352619047    7.50469420821399    9.85445924710574
H         3.18069060876876    7.85577519120966    9.39322243079863
C         4.72952454607527    8.27587118965430   10.80988291891805
H         4.31041879085325    9.22591263889536   11.11492351846255
C         7.73831644956805    9.77086953330314   11.24391539052570
C         8.78910260471357    9.11780318569819   10.60604896815737
H         9.11053973940178    8.14414923528692   10.94619224108574
C         9.42240158124053    9.71131082593264    9.52999947255204
H        10.24643581318181    9.20512719454478    9.04827529043786
C         8.99835962948526   10.94493308799159    9.06166845473004
H         9.49630647063691   11.40297694536061    8.21981690626411
C         7.92986249522863   11.58139763867952    9.66850825478703
H         7.58631003906827   12.53698582532166    9.30147858797155
C         7.30422426092718   10.99614194844947   10.75450297533556
H         6.47016958664708   11.48943064189018   11.23402036563798
C         7.91220631183615    7.84485931758474   13.39404536295948
C         7.36470282116101    6.72023742326842   14.00852163345094
H         6.30179157545293    6.54090702740734   13.91603175103355
C         8.16454791216080    5.85351284524730   14.72678049674927
H         7.73291162920598    4.98013444605322   15.19364657562532
C         9.51954442749897    6.11318886194811   14.86099939109621
H        10.14580338630747    5.44031995071115   15.42767270145790
C        10.06533008147760    7.24506488519881   14.28009377017424
H        11.11772754670870    7.45827747961376   14.39779773667482
C         9.26734015602094    8.11173431707287   13.55393769390434
H         9.70012342099940    8.99958180198967   13.11480697940405
C         2.97219845042302   12.28418656221224   10.84619297367404
C         3.88191218931718   12.50784228786731    9.63251665349460
H         4.70823953268289   13.16300963244923    9.90048834096777
H         3.31668664980957   12.96643724988999    8.82521206338130
H         4.29228512643326   11.56207569059484    9.28271208155333
C         2.41796974378940   13.61474894503751   11.36133829327218
H         1.82565872460943   13.45380886991775   12.25936007467457
H         1.78972310269500   14.07183544660843   10.60101535343157
H         3.23042306829318   14.29619363574838   11.59900742289124
C         1.82494097802415   11.32664154488509   10.50520562434333
H         2.21548483615355   10.37501621433946   10.15071428712339
H         1.19838787678389   11.75967836555540    9.72979859401718
H         1.21895596686668   11.14662306791993   11.39043529290983
C         2.69762717610329    6.57500078203655   13.71282125526673
C         1.63550974782663    6.86986115890649   12.64745770713116
H         1.11923641854452    7.79919472806484   12.87769614183609
H         0.90826382667850    6.06284124244483   12.61391498865853
H         2.10393204936973    6.96560775373716   11.67052167809279
C         2.05380451395330    6.43129453529141   15.09623621304101
H         2.81983118903174    6.28493640319231   15.85424079289459
H         1.37909192069259    5.57913161280420   15.10545440390498
H         1.49151007188014    7.32788285876250   15.34754785655899
C         3.48544774758215    5.31232881213083   13.34863018954320
H         3.99261342770999    5.44550590591628   12.39501458832011
H         2.81083825781724    4.46350903849144   13.27265734875109
H         4.22914085524589    5.09861066762596   14.11302578756372

