50
CSD_code = DEWSAC | q = 0 | S = 0 | Stoichiometry = C25H20N2O2Pt | MND = 4
Pt        3.97678887701749    6.61806019727207    4.86435514572931
O         3.80335804884954    7.57907664992766    6.73158717910333
O         5.30324442093227    7.98348313965894    4.28435814097322
N         2.41776317320038    4.33122865296910    4.34022405778523
N         2.67493789355453    5.22175582857387    5.30533110612492
C         1.92828907257411    4.89893896337780    6.35474892900732
H         1.96860490652873    5.47315690328116    7.25979949385285
C         1.16357820156124    3.76447343707268    6.06112286294038
C         1.50772217308263    3.43427842168538    4.76189738133768
H         1.16002974254678    2.63243344821793    4.14366696239757
C         0.19114259214416    3.07197656201084    6.95109553126084
H         0.21634222976631    3.50976782323802    7.94501543797878
H         0.42878984937841    2.01240937342857    7.02726403002705
H        -0.82019321024304    3.16205833996192    6.55643317231247
C         3.12549658710491    4.49519090932987    3.13920001065421
C         4.00620636375088    5.59369882422770    3.14812626635440
C         4.74884693845206    5.80660082816468    1.99272627536164
H         5.44346285657528    6.63307920993737    1.95812734555924
C         4.61604239217701    4.97407986197013    0.89114626415968
H         5.20464530587814    5.15871102956664    0.00406098891615
C         3.73499686764675    3.90511860061345    0.91510417018520
H         3.63582522532799    3.26267634517732    0.05294232640088
C         2.97886622502571    3.65464019765070    2.04726194877014
H         2.29243593236248    2.82155997619656    2.07301785876138
C         4.42656181251542    8.62465310028242    7.06207786652587
C         5.33562481761112    9.33275681633767    6.26349187498522
H         5.73618217974973   10.25008125762037    6.66238100406615
C         5.70805752729227    8.98016679602997    4.96463639871144
C         4.13195943008659    9.16051098460966    8.42046028451882
C         2.84417338191435    9.01012896547973    8.92889477668247
H         2.09726467375807    8.52480475026463    8.31781150022192
C         2.52530068223266    9.48482422714074   10.18665517848870
H         1.52038838912455    9.37202336996457   10.56709059806171
C         3.49485620330638   10.10202914922742   10.95963225872917
H         3.24903494294451   10.47159950295588   11.94441128486628
C         4.78353901776405   10.23754006840905   10.46987293335256
H         5.54449847601258   10.70607004960988   11.07711780520388
C         5.10289305260711    9.77233682677777    9.20737849470284
H         6.11557444584856    9.86286986142195    8.84365206900368
C         6.66490731211523    9.87048480503919    4.25097843635716
C         6.52414375195980   10.02713108651456    2.87391796047503
H         5.72272753670015    9.50625191168586    2.37129838790679
C         7.38782035891959   10.84296371336628    2.16861232966889
H         7.26396909079003   10.96454359279496    1.10241812354694
C         8.41274096993706   11.50174993467602    2.82760369190300
H         9.09029948308936   12.13856632675811    2.27795072868355
C         8.57214759210755   11.33534090077729    4.19345670862654
H         9.37968218266357   11.83650487046411    4.70728313104176
C         7.70439411916963   10.52618000163338    4.90384527563448
H         7.85233590458094   10.38523360665441    5.96405801208972

