57
CSD_code = DEWXUZ | q = 0 | S = 0 | Stoichiometry = C24H24N6NiO2 | MND = 4
Ni        5.16584233585169    0.00006561706969   -0.00002160060122
O         3.22149378001345    2.20366048381352    1.82717768763999
N         3.65844034424041    1.30169011821902   -0.28118275808718
N         5.22293873099091    0.37149031217819    1.78577634320510
H         4.52095517168962    1.07419832272415    2.06809265953790
N         3.40168875208998    0.96774119053519   -2.65565957864598
C         2.99977682808092    2.11400728393528    0.63055279822338
C         1.95430416187017    2.87921157722193   -0.09395934557116
C         1.03370043988744    3.81013589524555    0.33815679273100
H         0.98450348558203    4.10414364143406    1.37514143186971
C         0.17718141703496    4.34957818755148   -0.61561194256634
H        -0.55796719245936    5.08169271698443   -0.31564436665894
C         0.24979394502136    3.96398938853849   -1.94670066109243
H        -0.43102287303749    4.40323035841609   -2.66099551567049
C         1.18013677653279    3.02483031016043   -2.37829937765125
H         1.24282382225916    2.72004696617146   -3.41049555840318
C         2.02740080923620    2.49205012352221   -1.42956133717360
C         3.10787883642731    1.50167921636357   -1.51327429418999
C         5.94106604166129   -0.05212641171931    2.76752295337152
C         5.72880616809933    0.46513469855371    4.17143065986861
H         4.89959586663192    1.18011731795938    4.16442014079850
C         5.38417735025620   -0.70637587285776    5.09092216776332
H         4.46001904827998   -1.18315353621981    4.77219236814475
H         5.25981184001824   -0.35556781397021    6.11259133989235
H         6.18324512398512   -1.44212429916398    5.06199591821385
C         7.00286855866302    1.16912722556410    4.63935276358829
H         7.83981050641238    0.47716157470712    4.60042908251094
H         6.88077819965938    1.52261472939962    5.66035258667986
H         7.22490662322935    2.02122054890557    4.00094778867780
O         7.11008073847039   -2.20390726926100   -1.82716081204203
N         6.67318692008074   -1.30166932531733    0.28112811543624
N         5.10884995447141   -0.37138599901730   -1.78587706006151
H         5.81016504132437   -1.07476252851802   -2.06811777552453
N         6.92991746758518   -0.96759872295044    2.65559122448834
C         7.33184050420518   -2.11406863651545   -0.63052533909692
C         8.37734927333589   -2.87917621943880    0.09398784280634
C         9.29795832903095   -3.81009862115562   -0.33812113911780
H         9.34715625845935   -4.10411959291247   -1.37509902543015
C        10.15447412397461   -4.34952171392500    0.61565923246492
H        10.88962454015162   -5.08163484423576    0.31569883383702
C        10.08182824352773   -3.96392347538127    1.94674276273114
H        10.76261978994190   -4.40318209502505    2.66105191633859
C         9.15149043963523   -3.02474772508599    2.37831843829408
H         9.08878936071712   -2.71995600799544    3.41051158257118
C         8.30423976322209   -2.49196471114793    1.42957097369980
C         7.22374206080356   -1.50158918984341    1.51324029958899
C         4.39056160163801    0.05228837203787   -2.76758005936970
C         4.60277261908400   -0.46510675638862   -4.17143751785103
H         5.43200407480823   -1.18006917643830   -4.16439342135134
C         4.94737992405525    0.70634839751142   -5.09100371645219
H         5.87152423854084    1.18316689334650   -4.77229368833779
H         5.07176253540935    0.35547408083831   -6.11264581621626
H         4.14829314549294    1.44207687260761   -5.06212612904620
C         3.32872945615338   -1.16916805227935   -4.63928615320137
H         2.49176687081655   -0.47722944752329   -4.60039383403247
H         3.45081471671722   -1.52271593619206   -5.66026326246775
H         3.10672311013913   -2.02122844103702   -4.00082561906267

