37
CSD_code = DEWZUC | q = 0 | S = 0 | Stoichiometry = C13H14MoN4O5 | MND = 6
Mo        2.25956991198343   -0.88491304676603   13.15153595834307
N         2.64010038995697    1.14719465816155   13.58641705475825
O         3.45088054320115   -0.35340198035109   11.64416699131780
N         1.10892982984033   -1.21290443211568   14.44278762557690
C         3.77049650790828    0.95206429090819   11.45694592421560
H         3.30246428390145    1.35384842499988   10.52943468096343
H         4.86929248367914    1.08847746198025   11.34892161946662
O         1.97338281284532   -2.66267690140982   12.13896315221208
O         0.43328257742112   -1.39399204756603   15.40036071399851
O         0.81162344364544   -0.07560886875210   11.89572203520132
N         3.47967665481907    3.07597340534142   12.89843628697269
H         3.96133059239421    3.74347087571152   12.31894714851613
C         3.29837028239445    1.75995342595815   12.62682707391328
N         3.44967551499076   -1.51114468253762   14.28790600834983
O         4.13780333453152   -1.90252779615661   15.16611591243114
C         2.89128479726689    3.32973160590514   14.12033850092996
C         2.36017186895336    2.09358514640612   14.54566846312321
C         1.69365067145652    1.98465802758033   15.76063980904971
H         1.29262867495253    1.03678778995677   16.08558346484829
C         1.57464975106204    3.13314815283246   16.51717106459378
H         1.06379197309545    3.09106651140162   17.46654283499918
C         2.09949600324548    4.35484089500399   16.08882941623728
H         1.98117205959685    5.22496830732117   16.71619984350081
C         2.76722471840596    4.47840512754403   14.88565908686878
H         3.17431903515812    5.42247263548067   14.55863513026735
C        -0.52904761092282    0.30815429112805    9.97577326396325
H        -0.61353160012974    1.29202310120080   10.43233692233640
H        -1.51927359403276   -0.13655423623911    9.90226490533960
H        -0.12651533361504    0.40596618575371    8.97001730025310
C         0.37085980791244   -0.57204855323345   10.82121074906650
C         0.63499480016297   -1.85982964725080   10.35611008098154
H         0.20077594207536   -2.14553991454932    9.40947149341391
C         1.41039964442354   -2.81707838780188   11.02449043005834
C         1.55940315666958   -4.17425294173459   10.37027630327212
H         2.06952978289304   -4.07095542402598    9.41520405723874
H         0.58267247207366   -4.61706855593741   10.18921822437604
H         2.14006381578193   -4.82409290415057   11.02007046904380

