33
CSD_code = DEWZOW | q = 0 | S = 0 | Stoichiometry = C10H14MoN2O6 | MND = 6
Mo        7.11890670066654    8.94884940653724    2.94877022935293
O         4.44341401877390    8.80391986708471    4.15022040163817
N         5.53198754658254    8.84547901911004    3.70303253761500
O         5.85107195983434   10.66686185866291    0.93277696879330
N         6.39467247938896    9.97449087115862    1.71513013334972
O         8.99494436923453    8.93175801925679    2.14058676231010
O         7.78716888696673   10.52384881805485    4.10592005770071
O         6.91991750962058    7.18829397970330    1.88721110732776
O         8.09521888892318    7.82800473543029    4.35000365988310
C        11.33716631139612    9.16402601033518    1.82947199475438
H        11.16568929949697    8.33485633180994    1.14663188075279
H        12.09852826807446    8.88968006786044    2.55594977886747
H        11.70090093178956   10.02011916953013    1.26438645210890
C        10.04359952272221    9.52392251482173    2.52603479973046
C        10.08552242393660   10.48767065613566    3.53466080655685
H        11.04326551377653   10.92707829223023    3.76893733323809
C         8.97087265732164   10.93632171488965    4.25488552552177
C         9.18645094740573   12.02229669325914    5.28491361897255
H         9.56178007590343   12.92263488844136    4.80313483789408
H         9.91753720589395   11.70286944955746    6.02393080013927
H         8.24255115175445   12.24306976584533    5.77706578860107
C         7.28490263226515    5.00403873729674    1.05694721705331
H         6.76331082937834    4.15970167933570    1.50296987366084
H         8.24045502393973    4.65039217032449    0.67688862746867
H         6.69066243470310    5.40273340595491    0.23846276067752
C         7.49725767121414    6.08479531493933    2.09314883291146
C         8.29172038070283    5.77745653708895    3.20522298687387
H         8.72896503082251    4.79159121642966    3.25154954160563
C         8.54481026817913    6.64932093970631    4.26537366678505
C         9.40983118488852    6.15483742451665    5.40356311411161
H        10.37363353120328    5.81721578433315    5.02826395041057
H         8.92613068473702    5.31492002276873    5.89842516887948
H         9.55885365850378    6.95664463759213    6.12362878445109

