67
CSD_code = DEXCOA | q = 0 | S = 0 | Stoichiometry = C28H33Cl2N3Pd | MND = 4
Pd       -0.74646578709987    8.40824251461780    3.75307391525948
Cl       -1.59840531603245    9.72887381732543    5.38982167360406
Cl       -1.71704459436754    9.63241156972868    2.17430670869083
N         0.04869406085539    7.21021796402505    5.18936546607352
C        -0.01783981189587    7.16222280302824    2.41348005240250
N         0.67486208492468    7.35344449402949    1.30307993588456
N        -0.06480143881028    5.85327569644959    2.67979319991421
C         0.99409856116825    8.61463579092209    0.72885777503119
C        -0.05810273472991    5.87926155926502    5.10129015513536
C         1.13448374495798    6.97249771160859    7.29295382745926
H         1.59090072349664    7.44772086983754    8.14601939550330
C         1.88900411888283    9.46625929001322    1.38448739788494
C        -0.48744725206672    4.22636906139479    0.87626881168103
H        -0.95603741403497    3.51024286561873    1.55560356168519
H        -1.25825149869509    4.91474358839462    0.52402357226726
C         1.24965105077000    6.10957817623941    0.79223606886133
H         2.33694737928201    6.12676748418266    0.93222575492389
H         1.04609179857734    5.97959153314892   -0.27143272929095
C         0.56870925949259    5.03425725016298    1.65398962907636
H         1.29795245119199    4.35055700215366    2.10415463820873
C         0.40910908572631    8.97068540574893   -0.48977457431612
C         0.76733318881569   10.18170839025100   -1.06409124428687
H         0.32644485751385   10.47783906726620   -2.00289408918801
C        -0.73140107013288    5.34410651915128    3.85521558865994
H        -0.70740926520267    4.25351959468854    3.84443710523747
H        -1.78482047046081    5.68571646585237    3.85522985108451
C         1.66328095627933   11.02615282391453   -0.43964855467913
H         1.92456382235233   11.96953228983929   -0.89538638784247
C         0.12661165200133    3.49700487097520   -0.28484801798360
C         2.50637186008466    9.12796085386276    2.72370115710016
H         2.17300795090782    8.13071632364920    3.04324305856703
C         1.55016323150874    1.75127642976560   -1.13676460473114
H         2.19443008922726    0.90334301706887   -0.95683709605376
C         2.20869485333949   10.67457306348730    0.77836762815192
H         2.88998364410585   11.35328198510598    1.26747836572638
C        -1.94283098674057    8.87891911613452   -1.30325773451592
H        -2.24005909422504    9.26377491286068   -0.33065140193257
H        -2.72471611879803    8.22234231769210   -1.67974864467851
H        -1.83646156203320    9.71362867072875   -1.99013531444291
C         0.96145499466579    2.40665083174702   -0.07086565087155
H         1.14494947077326    2.06215218192549    0.93728756313494
C         0.63252699958528    7.74544795175868    6.25996797824690
H         0.65995109580116    8.82740751890251    6.29563095297599
C         1.03116435745270    5.59311447007804    7.21189632631411
H         1.40772113185278    4.95930851843511    7.99987171176069
C         0.42758180702792    5.04071009606817    6.09146644309326
H         0.32328306417417    3.97105514970519    5.99217194824400
C        -0.63022113596966    8.10514987676039   -1.16171284957729
H        -0.83952003386715    7.24278848627460   -0.52341276529372
C         1.31248727952970    2.17857679095697   -2.43250378191130
H         1.77191832585396    1.66648127679727   -3.26443515925898
C        -0.10992713929755    3.91424546292732   -1.58785431994758
H        -0.77013508559507    4.74964507300462   -1.76945254356070
C         0.47857701545394    3.25988786755378   -2.65601017579624
H         0.28329845794309    3.59506721919516   -3.66374401292280
C         4.03489709351060    9.09919417580945    2.63261969190271
H         4.36088538165264    8.40288777010416    1.86209590039832
H         4.46013816691280    8.78605914435806    3.58396261318890
H         4.42980570219907   10.08192096354697    2.39102672939652
C         2.03978856326895   10.13767668624612    3.78059793548837
H         0.93501964474599   10.14077473242815    3.84437567648980
H         2.36258835424915   11.14269792972416    3.52164982629521
H         2.45929293066041    9.88227484420012    4.75289946979070
C        -0.13463693838782    7.60971488196979   -2.52337553384354
H         0.78661562368671    7.03648667897119   -2.42425172301944
H         0.06088048465994    8.44836225961033   -3.18638764957720
H        -0.88778162268833    6.97910800074040   -2.99184850126281

