46
CSD_code = DEXCUG | q = 0 | S = 0 | Stoichiometry = C19H21Cl2N3Pd | MND = 4
Pd        2.36146116448913    3.19710269985416    8.74592270787390
Cl        3.39462582284054    2.31937400087511    6.92890508210653
Cl        1.45478364535464    4.81655121198970    7.52626340896014
N         0.34277633276872    4.24325286790272   10.82847449243161
C         0.33911852713602    4.45290376844605   12.18572585741832
H        -0.55105973017201    4.71766914771515   12.71866973813324
N         2.34870826682622    3.91875349764042   11.52542331888547
N         3.25394844893718    1.77098207744301    9.88785090973081
C        -2.50177480440231    3.46999265174793    8.59855720154689
H        -2.96776411553257    2.61283449963002    8.13633816861941
C        -1.37250295948260    3.28177050031353    9.38606943433618
C        -0.79326879447188    4.40143089956714    9.98619481864496
C        -3.03435406112494    4.72888137765930    8.40511963167048
H        -3.90935904052834    4.85627676469682    7.78586797245094
C         1.57595759285892    3.90866550276408   10.41991140092481
C        -2.44511505522741    5.82495816937756    9.00462628084604
H        -2.85637275265995    6.81130996866492    8.85070260577780
C        -1.32054734719280    5.68284540879291    9.80504857694923
C        -0.84264859109985    1.88231899935017    9.56058610286090
H        -1.66480190006000    1.23859760261727    9.88913093577223
H        -0.06348714579815    1.84905624034152   10.32886362226713
C         3.29480812781301    0.50994126264076    9.46176747970348
H         2.82141421758587    0.31495199098873    8.50715671702971
C         1.60158036541420    4.24093634213979   12.62763394831407
H         2.01748341260230    4.30439136617725   13.61212092216946
C         4.50670119808742    1.14256912381318   11.81272424928105
H         4.97965630493456    1.43205439793329   12.73852431073137
C         4.56125168281634   -0.17061800505068   11.36790111078308
H         5.07749362960324   -0.92234824664705   11.94442424020352
C         3.74042165574235    3.53634569572551   11.47293894758341
H         4.20302283792196    3.69397333856350   12.44871829801972
H         4.24658989301621    4.16430193430536   10.71613142459633
C        -0.27744269026561    1.33347994521818    8.24496504597868
H         0.08188919929644    0.31553329359725    8.38855097229166
H         0.55393732334079    1.96961639903042    7.88451834444918
H        -1.04464683263559    1.32273773586039    7.47524752631417
C        -0.67823608933260    6.91468130635675   10.37889634668877
H        -0.05399842141210    6.67546055928080   11.24077230159784
H        -1.45820610058032    7.60422350727442   10.71217791920434
C         0.18368905240553    7.59551378572521    9.31313094729269
H         0.71230961734968    8.44450287271932    9.74040930041101
H        -0.43561191150922    7.94604923230158    8.49196682487251
H         0.90367820812379    6.88915512491800    8.90586831173235
C         3.84761932035157    2.08783510953841   11.04487877266832
C         3.93872333417063   -0.48921822255606   10.17142672163716
H         3.95494916170116   -1.49589770724480    9.78669674824040

