42
CSD_code = DEXCIT | q = 0 | S = 0 | Stoichiometry = C9H22Cl2N2O3OsS3 | MND = 6
Os        3.48962129670217    3.45084990985181    8.74418747107311
Cl        2.14692903374119    5.26726692674242    9.29032115814449
Cl        5.41771869221468    4.71287546218360    8.46270013418843
S         3.00453014022146    3.93987761413682    6.59210133247811
S         1.68363867335886    2.12054793425091    9.04776515652303
S         4.68916205835068    1.59439885174256    8.06271282327822
O         3.72922799142887    3.08264864982083    5.65677063037828
O         1.34400581609770    1.41350779901130    7.81262220991855
O         4.94591313012125    0.77665881751536    9.26108335463193
N         4.05043562138475    3.24554780470663   10.71154781722899
C         5.26015951127636    2.94414691496343   11.13235092002994
H         6.06648166710445    2.61749944306207   10.50814635113138
N         5.34364694135468    3.08435376440634   12.46562094377273
H         6.16539742217861    2.92653416546183   13.02545817909486
C         4.13073945307650    3.51190791809703   12.91572336516345
H         3.93412417756275    3.71273231029205   13.94793544741489
C         3.33327729163769    3.60807369674387   11.81609237146510
H         2.32307672201522    3.95774025668518   11.73837640032419
C         1.26164630303513    3.94905029550314    6.06055248049559
H         0.86056579446742    2.95653279172369    6.23389423981042
H         1.22066179781499    4.19583099146760    5.00669899527145
H         0.74533536846640    4.68693633246366    6.66352231784785
C         3.37916732193975    5.65336012910930    6.11343620669444
H         4.43905401248343    5.81322583052872    6.28284093971633
H         2.80075896639931    6.30690732311518    6.75645392557460
H         3.13140376379205    5.78678303055184    5.06742084309827
C         1.91028850444542    0.81336751371673   10.30408588538012
H         2.89905036169053    0.38907382842597   10.15032222695550
H         1.14487094676611    0.06123407332647   10.15470513576788
H         1.84505147742324    1.25545842314691   11.29030079484665
C         0.09403861733910    2.76781623036925    9.67803031852987
H        -0.16189965051664    3.64222104349154    9.09089815216705
H         0.21661973391045    3.05497385525814   10.71379952532064
H        -0.65215269511656    1.99121548355558    9.56165047424398
C         6.30474157398427    1.86380688014488    7.26780157850474
H         6.86681882061412    2.57239146036704    7.86599834014250
H         6.09921057711930    2.29215522617936    6.29458772238401
H         6.82056960549008    0.91401794215855    7.19433648121195
C         4.05468161950947    0.40654909736933    6.83786894275224
H         3.02532414456447    0.17670260749545    7.08846240057365
H         4.67438449210288   -0.47962898399622    6.90225550537285
H         4.10072290245022    0.87305035484136    5.86336050110750

