63
CSD_code = DEXFIX | q = 0 | S = 0 | Stoichiometry = C28H26N4NiS4 | MND = 4
N         3.40978129570640    1.21531379267446    1.61950645213000
S         1.71659626341927    1.32345354604676   -0.45389124842369
S         1.11753545276751   -0.14196650979291    1.90658015091309
Ni        0.00024652810049   -0.00107443563454   -0.00035708636063
C         2.24055264915741    0.85753912024079    1.10004257571979
C         3.78915679242652    0.82999656114900    2.96575607448569
H         4.84057510412479    0.52825317471982    2.95402065264777
H         3.17481329196830   -0.02923375886191    3.25308141434384
C         3.58685854369631    1.95472833914501    3.94693091517682
C         4.65141420650497    2.50915842677417    4.64768719004101
H         5.65535403509352    2.12000163749236    4.53078894890328
N         4.52974054621522    3.52019996722205    5.48668891949536
C         3.32835470961162    4.03710220800864    5.67226067540041
H         3.28042329158324    4.87079146687409    6.35989030768793
C         2.18991706409860    3.55477940810167    5.04405569675798
H         1.22489284876600    3.99723436170410    5.23479693179731
C         2.32367763581873    2.49306634985476    4.16732720136536
H         1.46279159378310    2.08457629170153    3.65891783086687
C         4.32216112524178    2.09103341287769    0.90762681510659
H         4.00652326239036    2.11797641514878   -0.13976787875258
H         5.32603139875378    1.65873596785530    0.96245026999219
C         4.32241879643193    3.48524753223937    1.48284034032565
C         3.13854113029340    4.21044378862561    1.53773555170956
H         2.23121255672380    3.78205358040542    1.13818421437068
C         3.11818987979929    5.47146999980705    2.10368310108637
H         2.19164600451267    6.02434031699936    2.14877386203139
C         4.28212264292180    6.02357826478684    2.61179194531416
H         4.26486421590221    7.00621112210987    3.05868468167476
C         5.46770208719930    5.31387733857984    2.54369540532132
H         6.37822720163554    5.74071265132848    2.93581574520097
C         5.48688762184306    4.04873993676309    1.98345337477343
H         6.41415225343561    3.49535883757305    1.93779351688517
N        -3.41004805021244   -1.21546138304157   -1.61930739012320
S        -1.71699355008879   -1.32326974362390    0.45418249250080
S        -1.11795471761478    0.14223838683133   -1.90605860567079
C        -2.24085408014610   -0.85770557346800   -1.09982567030300
C        -3.78939371645428   -0.82998643173996   -2.96552495423337
H        -4.84085036481078   -0.52836205379020   -2.95379002309178
H        -3.17512323810286    0.02934470783423   -3.25270792354566
C        -3.58691524842434   -1.95458272119582   -3.94681609794846
C        -4.65138582393948   -2.50905361810042   -4.64766093692311
H        -5.65536489799483   -2.12000238842012   -4.53075031600267
N        -4.52958585926362   -3.52000686266004   -5.48675044671161
C        -3.32814055206851   -4.03676497039129   -5.67233388898510
H        -3.28010623585502   -4.87039775292731   -6.36002431447035
C        -2.18976770644384   -3.55435729297006   -5.04407661443078
H        -1.22468780933078   -3.99667335528925   -5.23485905237075
C        -2.32366319789383   -2.49274362493840   -4.16724732264510
H        -1.46282000918093   -2.08419277619503   -3.65881177110014
C        -4.32237085757615   -2.09128602055605   -0.90748937422608
H        -4.00669285853858   -2.11830446573596    0.13989468317022
H        -5.32628316605080   -1.65906889752891   -0.96222884823678
C        -4.32247044467538   -3.48543741227836   -1.48283857396045
C        -3.13849876728238   -4.21047694044633   -1.53781550119845
H        -2.23123227994582   -3.78203459026859   -1.13817783345058
C        -3.11797356783878   -5.47141331366749   -2.10395808570411
H        -2.19136266957303   -6.02416549503675   -2.14912112872616
C        -4.28182972604134   -6.02358630649967   -2.61217238181866
H        -4.26443654130862   -7.00613407068735   -3.05924406004154
C        -5.46750835988917   -5.31406367402614   -2.54394532072612
H        -6.37797699446049   -5.74096631188069   -2.93611816320420
C        -5.48686559058455   -4.04901476302295   -1.98351304160808
H        -6.41420514833238   -3.49576939679360   -1.93775408220034

