59
CSD_code = DEXFUJ | q = 0 | S = 0 | Stoichiometry = C30H22NiO2S4 | MND = 4
C         6.45860854617982    0.49585614289850    4.31418041498331
C         5.43957941370967   -0.23866474953836    2.31933553080974
H         4.86124677102064   -0.93216781919823    2.94087309038146
H         6.26436000916447   -0.79169852789473    1.85539540269150
C         4.54507950681584    0.40186100246786    1.25755287592260
H         5.12079951627150    1.18465284080658    0.75314473401462
C         4.02604154347629   -0.62656409224557    0.28396788773327
C         4.73190225565343   -1.44800734759391   -0.56798965240200
H         5.81047063794537   -1.40750003164762   -0.61491280140083
C         4.02803395590193   -2.33036176466333   -1.37739595448177
H         4.56597555000510   -2.97995894355322   -2.05162609807654
C         2.64367501827018   -2.38525207269377   -1.33082261564498
H         2.11724513284329   -3.07893407108590   -1.96977205328097
C         1.92817559801553   -1.56031724022745   -0.47800009611671
H         0.84997372223631   -1.60375956107468   -0.44691376284026
C         2.62518918511727   -0.67895175042508    0.33186504965126
C         2.15759614629229    0.29699650861321    1.30441958977474
C         0.87730175110017    0.62987105643250    1.71453674366872
H         0.01576760685492    0.13087799570127    1.29697353595153
C         0.72522024764682    1.61759099072659    2.67457763149163
H        -0.26537944775318    1.88936064872873    3.00871914337956
C         1.82813996328719    2.26373984792429    3.21130510025946
H         1.68667392776718    3.03163977175052    3.95721978237278
C         3.11437485542609    1.93752080895651    2.80065944571203
H         3.97029750244821    2.44580333626422    3.21878132904943
C         3.27127466687762    0.95259250228057    1.84960347713803
O         5.98099163297802    0.79732945491043    3.13406064455707
S         7.03592345316430    1.72946102258744    5.31053048865910
S         6.54366117959583   -1.06714521915879    4.95528548129501
Ni        7.59671270013430   -0.00012262705825    6.59996577849598
C         8.73469363691903   -0.49581450876225    8.88596958236347
C         9.75345062849447    0.23864277946628   10.88096798300477
H        10.33176280099247    0.93223071106988   10.25950295312818
H         8.92856966402346    0.79156840160780   11.34485832857259
C        10.64795906066731   -0.40188801583020   11.94274439777950
H        10.07226372960893   -1.18468306810318   12.44717775834286
C        11.16699117297761    0.62655519317802   12.91631202567091
C        10.46113186602662    1.44799436747563   13.76827626732284
H         9.38256392580552    1.40749015213808   13.81519596438352
C        11.16500077312851    2.33033091759352   14.57770053306585
H        10.62706125715816    2.97991939128164   15.25194105009327
C        12.54936001030465    2.38522787535606   14.53112520979510
H        13.07579021557060    3.07890321442655   15.17008079130980
C        13.26485985519752    1.56030461898463   13.67829258707607
H        14.34306058243626    1.60376040595597   13.64719462331701
C        12.56784510627953    0.67894047712202   12.86842525473388
C        13.03544597307088   -0.29699711677931   11.89586585891011
C        14.31574537365967   -0.62985045724846   11.48574308491330
H        15.17727470381755   -0.13086444778074   11.90332352558047
C        14.46783577137631   -1.61753786296997   10.52567181703108
H        15.45843848501354   -1.88929629934576   10.19152995850145
C        13.36492114630784   -2.26367845129400    9.98892651561124
H        13.50639392598683   -3.03154232083018    9.24297666861105
C        12.07868251112549   -1.93748955751869   10.39958540526792
H        11.22276934693743   -2.44577271935729    9.98145274222526
C        11.92177207586112   -0.95259726301154   11.35067838682637
O         9.21217294040616   -0.79734953209013   10.06614688235554
S         8.15742179882169   -1.72948713347540    7.88962829696686
S         8.64974911357569    1.06723213574788    8.24468542348719

