67
CSD_code = DEXGEU | q = 1 | S = 0 | Stoichiometry = C34H27ClN2OPPd(1+) | MND = 4
Pd        5.87124189687333    4.70763058390949    9.28939121748584
Cl        7.24750991302396    3.10093004601815    7.42758162409124
P         6.52496635348718    4.04737780679799   11.94103361204221
O         8.85808222127011    3.19133356274456   10.76271723905928
N         5.13681186493582    6.26154110946526    8.10770489595729
N         4.10768876266241    3.75529748411897    8.42359103713380
C         6.54689372939164    3.08773285307199   10.43672794597400
H         5.84869419554280    2.25153897359984   10.35765553988083
C         7.92787682520649    2.86575495019104   10.04377172277991
C         8.18835227013971    2.24603917055150    8.67255722763880
H         7.88384221791396    1.19849282211444    8.65561737076851
H         9.24554805581182    2.33726504502249    8.42416559433142
C         7.50270561925687    5.48319356897812   11.48565650954110
C         7.38520711467865    5.72727742116645   10.10938539643570
C         8.27340321000159    6.61919609925306    9.52899351966817
H         8.27371614474596    6.78512705108067    8.45624669573736
C         9.20740226902312    7.27942296973715   10.31984942289994
H         9.90287280722096    7.96299620533706    9.85548573514180
C         9.27015792185436    7.06208173157185   11.68691687309128
H        10.00149910134411    7.58716696964366   12.28180394790950
C         8.43143399064389    6.13627403696595   12.28275951800559
H         8.50964132944961    5.90698360754929   13.33584599960653
C         4.76501845846537    4.46521744154095   12.13006645439557
C         4.24279383287218    5.64137664631050   11.58923291719085
H         4.91095553765492    6.40488000957841   11.18943556032753
C         2.87508607518762    5.85436711600190   11.62228185960019
H         2.46258111490005    6.76490739409526   11.21330047810836
C         2.03369990440876    4.90494149498767   12.18562704359824
H         0.96788949095159    5.07424475823091   12.20171338838221
C         2.55643414835704    3.74815091188824   12.73910725469243
H         1.90087691527066    3.01841884928678   13.18941202743550
C         3.92333020692061    3.52472254216215   12.71183584704127
H         4.34374971566044    2.62524579495463   13.14334586792952
C         7.05801529562604    3.31696863017464   13.49976912871762
C         6.77406570450905    4.01634691860937   14.67128947253029
H         6.22594557444677    4.94853986932252   14.61654753435459
C         7.88236188802188    2.30602559225191   15.93240876647486
H         8.20715523640715    1.91130619045570   16.88283962095665
C         7.18975989890240    3.50729175730707   15.88660557913910
H         6.97581777492589    4.04399353428797   16.79834565310613
C         8.16042364230807    1.61088929412299   14.76621833990233
H         8.70095348750260    0.67779989654237   14.80923472633039
C         7.75057805949133    2.11342753032592   13.54362863267941
H         7.97475317381210    1.58858196919965   12.62657976023811
C         5.52594631884993    7.51992041904692    8.03330780396918
H         6.16655357273530    7.88504090754047    8.82710841233329
C         5.15135529938355    8.36810721941701    6.99459297731078
H         5.51128673322886    9.38487431311548    6.99258940059780
C         4.34437752421513    7.90979442843635    5.97268465576775
C         3.87546480716332    6.57559448735411    6.06427678976176
C         2.99825995453225    6.00384196867107    5.09707033637965
H         2.71333525592154    6.59731798765248    4.24400119154495
C         2.51323285155021    4.74768823582687    5.23860263624501
H         1.84218235126792    4.32802035187778    4.50493926113376
C         2.85516190505199    3.95328845764702    6.36715473752524
C         2.31523268777582    2.67459700097211    6.58329740541417
H         1.63059169917685    2.25628051540525    5.86113655414393
C         2.65856003426085    1.98938115862430    7.72203203110034
H         2.25038487061544    1.01462932933016    7.93462653862587
C         3.55946850649920    2.57334991332567    8.61621116163297
H         3.82527959809812    2.05106640043779    9.52761302310358
C         3.76028706101545    4.46182839325568    7.32534075291814
C         4.29034734376515    5.79022950596292    7.16446994114288
C         3.97307692411448    8.79508600095668    4.83381616521512
H         4.43495704179952    9.77203461851730    4.94433630485841
H         2.89289439690439    8.92624993916769    4.78561177647528
H         4.30097031098746    8.36148023690351    3.89009558454922

