57
CSD_code = DEXJEV | q = 1 | S = 0 | Stoichiometry = C20H28N5NiO3(1+) | MND = 6
Ni        2.87427427403416    2.78326277422388    2.15040678054079
O         2.82317572527574    2.71351588589162   -0.01538102720194
O         1.56014971071101    1.20241738169902    0.78475965596879
O         1.92775663660528    1.28235765404879   -1.32856373160380
N         4.21735663413821    1.50962157006765    2.20657731002447
N         1.92230775039334    1.63332459193037    3.52970923125850
N         1.43937019947493    4.02775110581942    2.05157636661953
N         3.95356616155984    4.61004793262000    2.81716606252299
N         2.08999327172944    1.69767497863411   -0.21878378038297
C         5.63375201259620    2.72499705850564    0.61496166785363
C         5.33363786921151    1.53772264543737    1.46435537417258
C         6.21845273011736    0.46230860183739    1.46484658172026
C         5.95561149381826   -0.65115004635167    2.23757269613179
C         4.80360061224447   -0.66166445439874    3.00525303001264
C         3.95314068109991    0.43215102372139    2.96159417901447
C         2.67946361808817    0.42034769675150    3.75761920549658
C        -0.04680533509486    0.53209636782882    4.44526654556270
C         0.68538889999739    1.67806751209827    3.82689279461492
C        -0.15802956321512    2.87769264611100    3.51712336099205
C         0.54277063568089    4.21760854857446    3.21721056233288
C        -0.56483115218859    5.23046069549593    2.88335499186120
C         1.31415200911864    4.68892437673399    4.44968337250650
C         2.05894968264931    5.24374089988554    1.49218538999448
C         3.27811978556501    5.63300264290489    2.27894845591547
C         3.69032551299492    6.94792325887927    2.41654547807453
C         4.83962944993202    7.20819389693890    3.14787741662295
C         5.51049495838742    6.15090129353357    3.73346020901860
C         5.03743835655909    4.85393472788025    3.55380639062982
C         5.72881093266124    3.69315772411666    4.18744188768841
H         5.05568654199687    3.59210990787632    0.92857440635661
H         6.69654464038109    2.95320884256890    0.63713769992987
H         5.35706873946607    2.50625802426004   -0.41645392557441
H         7.10077696242811    0.51275017248862    0.84742542923871
H         6.62806694787858   -1.49409603981925    2.24119463854413
H         4.55274804014995   -1.50823735716348    3.62344845910061
H         2.09831087674713   -0.45999525534480    3.45346029475602
H         2.90972649707468    0.31583253971926    4.82662601891115
H         0.45480262047378    0.19393257118786    5.35079421877690
H        -1.07131366508189    0.79492640026081    4.68661290517316
H        -0.06447605750975   -0.30477696911870    3.74588257169165
H        -0.77163844336983    2.58913791190927    2.65556015284497
H        -0.84487572070430    3.03614579568162    4.35044214910996
H        -1.33923412814566    5.19349985626099    3.64451672575612
H        -0.18467386093487    6.24818620374914    2.86528777464514
H        -1.02770835746881    5.00836791810070    1.92366533351401
H         0.64416521355020    4.72668428189619    5.30455410665294
H         2.13038328592457    4.00664713662846    4.67842276848369
H         1.72116582281294    5.68541981380950    4.30121662443597
H         2.38723418601850    5.00122189143609    0.47278852750579
H         1.35186064528933    6.07472550655843    1.42867090195690
H         3.12729252477836    7.74723015530815    1.96253690768386
H         5.19412059988926    8.21968836515700    3.26865649650387
H         6.39520385099872    6.31834766731019    4.32602204173606
H         6.10940864997657    3.96513230058501    5.16839348927332
H         5.04058954645407    2.85562111648350    4.28315004560693
H         6.57373255284800    3.37984089596808    3.57542789403898
H         0.84810793393547    3.63199935482434    1.31481888538510

