91
CSD_code = DEXLAU | q = 0 | S = 0 | Stoichiometry = C24H42FeN8O12P4 | MND = 6
Fe        0.93648226980103    6.91537565227907   -0.00030637981444
P         0.75984159002309    6.54470550873184    2.11801688309407
P         2.56361240705485    8.30539727868904    0.26881676611739
O         0.28796948929473    3.97078824973492    2.25765153366553
O        -1.39746762655710    2.89458925799455    3.25344352169670
O         0.06697203000321    7.58222279493003    4.52677554424813
O         1.68251847173491    9.09764324077996    4.89787870908766
O         1.82658213440314   10.37111311834738    1.68732937885224
O         1.65700425924068   12.51688195933358    1.08924958554169
N         3.53951611038471    6.52235685118235    2.18528345307836
N        -0.51088402695815    5.62354413788153   -0.26557648134513
N        -0.62533227114654    4.47807913482844   -0.44479943657969
N        -0.87582712675083    3.38453557450998   -0.64295385197280
C         2.37843029047888    6.19954693140248    2.98166822860623
H         2.43869843622126    6.77128462375471    3.91410621595436
H         2.41201108342418    5.13203859670644    3.22388743993509
C         3.59846980054020    7.90118429268732    1.76540890657718
H         4.64629806635835    8.16658071251137    1.55983397866585
H         3.23650450173141    8.53306541478938    2.58511415442957
C         3.81452438212585    8.25050352868006   -1.13374955575128
H         3.85496068209642    9.25331629898119   -1.57639083562401
H         4.80467774723557    8.01915213676904   -0.71817672486018
C        -0.27014159242532    5.17220710907528    2.76747351043778
H        -0.27228079934097    5.16179864748628    3.86724201147471
H        -1.30192606495406    5.29437986196886    2.41121514045649
C        -0.43327593499287    2.85473690107963    2.54102511652016
C         0.11903678226373    1.64312665522797    1.86473313120999
H        -0.34601153505200    0.75222093554936    2.27426128281643
H         1.19911760069576    1.58932303444761    1.96780838843884
H        -0.12109515885961    1.71645637836213    0.80209593103245
C         0.02623654317037    7.90406048811681    3.14380172977580
H         0.55890642913558    8.84141959684897    2.94857775245419
H        -1.02435971184296    8.00655886495055    2.85482227312486
C         0.91673180243575    8.26334249280678    5.30784637747792
C         0.76826129434971    7.85161158680258    6.74477355678531
H         1.71870210459253    7.95692824016496    7.25943172648206
H         0.39958243071029    6.83316608205463    6.81111696621736
H         0.04639352906812    8.51469687279396    7.21814277868077
C         2.50007328144415   10.13107461644913    0.46712127061545
H         3.51374767494634   10.56133890694279    0.49871299069698
H         1.94469825904431   10.57703697170920   -0.36855964809828
C         1.40008613610930   11.64427736342926    1.87151940248025
C         0.61961444018562   11.78009217348681    3.13971379784564
H         0.61997624266734   12.81718966059548    3.46013643411808
H         1.03426968980677   11.13378909527283    3.90892451228039
H        -0.40389798112186   11.47506623766432    2.92395725921530
P         0.76008494448746    7.28630610476924   -2.11838436366063
P         2.56366885781423    5.52544974663314   -0.26849803177646
O         0.28785874661199    9.85986632016087   -2.25810481507282
O        -1.39685777350775   10.93624790618573   -3.25494064300236
O         0.06603848249753    6.24791126195783   -4.52655945825560
O         1.68619949536356    4.73751757375094   -4.89791777728470
O         1.82633700960043    3.45971916205352   -1.68717895843904
O         1.65729490583058    1.31377982298336   -1.08955315325032
N         3.53984465580450    7.30857552927633   -2.18491343055566
N        -0.51108888956316    8.20716220186720    0.26527191514813
N        -0.62521613904322    9.35259212821864    0.44510322009935
N        -0.87519521008586   10.44615820335417    0.64356322238596
C         2.37890166247880    7.63192215515952   -2.98134126201173
H         2.43940907124950    7.06097658332048   -3.91423537374457
H         2.41244345996999    8.69964488340149   -3.22261450111954
C         3.59832768068216    5.92968198025674   -1.76523157670486
H         4.64607603829135    5.66381352127317   -1.55985842186053
H         3.23598114952301    5.29810114691908   -2.58502597733940
C         3.81417938335858    5.58009219091368    1.13438149663840
H         3.85393397920694    4.57733783612967    1.57722991006659
H         4.80457497403130    5.81088770810012    0.71907061218588
C        -0.27000490042367    8.65848062365997   -2.76822793164478
H        -0.27165330177873    8.66884213861515   -3.86799825327915
H        -1.30190913125256    8.53616985622439   -2.41235696537007
C        -0.43325971544148   10.97596101645323   -2.54171913690069
C         0.11871465727009   12.18738127866988   -1.86488139135344
H        -0.34612456136676   13.07839916342900   -2.27439282050497
H         1.19884105924012   12.24121579362828   -1.96735515702658
H        -0.12195161183114   12.11367684957033   -0.80239360543566
C         0.02679376098619    5.92634522165210   -3.14358034230048
H         0.56011713574981    4.98932780607402   -2.94855173954505
H        -1.02352233076727    5.82334344280349   -2.85375575852145
C         0.91759404216972    5.56927134841383   -5.30783497252062
C         0.76713623185849    5.98048856493855   -6.74468833386371
H         1.71790206108663    5.87946564306342   -7.25970723707109
H         0.39387883426985    6.99732881669133   -6.81072367992825
H         0.04802607659196    5.31423256273431   -7.21792687391808
C         2.50007945697318    3.69978676975351   -0.46708524636048
H         3.51379945391938    3.26966759778479   -0.49903158948891
H         1.94498533128161    3.25363385634955    0.36867534846291
C         1.40021756764823    2.18654094263302   -1.87158385750168
C         0.61982854904569    2.05078955693195   -3.13990365771750
H         0.62045152905748    1.01376331641746   -3.46054374756081
H         1.03441201565903    2.69731340807217   -3.90895829505434
H        -0.40375685733526    2.35552638997369   -2.92414211417495

