45
CSD_code = DEXPIF | q = -1 | S = 0 | Stoichiometry = C4H20B18CoI2(1-) | MND = 10
I         6.94481801815060    8.39775340697580    1.78731757230800
Co        5.75722432182237    7.32798352990433    5.21267760878483
C         6.25868976995537    5.37783197377784    5.48222784093705
C         4.77773252690736    5.55800794151557    5.02497101862158
B         7.30793924530189    6.13624080347121    4.43002488634995
B         7.13205051952424    4.35322749424561    4.43525588563334
B         5.46516628321698    3.98738091970574    4.84210072732338
B         4.68810367490767    6.45462603151152    3.62118345498374
B         6.31999856749548    6.75439242133950    3.16345377013330
B         7.14929241320373    5.20454000508794    2.90145608372868
B         5.97146490406292    3.89681428852121    3.16747440020765
B         4.43563252964225    4.68092294007993    3.60267370351129
B         5.46157582128900    5.40963431982701    2.38028594733238
H         6.46432810038736    5.25196083511494    6.54019632352031
H         3.99690907698139    5.55214150430893    5.77832568059296
H         8.36040086934061    6.52669486922683    4.80586700333233
H         8.00189235326902    3.69957261655448    4.89389156012458
H         5.12788672976506    3.16092629802120    5.60993856945654
H         3.72092590137237    7.09077258475492    3.37339508717623
H         8.05320151705637    5.11820527928571    2.14089121471478
H         6.02617435552136    2.86922865902476    2.58555092914026
H         3.34006195325016    4.26622551426498    3.45423977207932
H         5.14119817158840    5.47219564909161    1.24166473877756
C         5.25560079866046    9.27808802621490    4.94311035358597
C         6.73660845362355    9.09802563601050    5.40025348322808
B         4.20649868668041    8.51963541854770    5.99543825868213
B         6.82642393184296    8.20146404677303    6.80406188861502
B         5.19460146682412    7.90160595746058    7.26195117842255
B         4.38225629610110   10.30266306028956    5.99012261121103
B         6.04907980134959   10.66861403981611    5.58311483481182
H         5.04986834505765    9.40390597208390    3.88515116227926
B         7.07877523062533    9.97519035114362    6.82247668489961
H         7.51737395383003    9.10391845439263    4.64684449740418
B         4.36521428737344    9.45140620726542    7.52395694694861
H         3.15403819769627    8.12909297236402    5.61969314053310
B         6.05299378302696    9.24646259763259    8.04498448568498
H         7.79366418081850    7.56539150491546    7.05179367185259
I         4.57017745127124    6.25828954245538    8.63831159563401
B         5.54292501062598   10.75921029874171    7.25778159794009
H         3.51232813029591   10.95623867103221    5.53154006697231
H         6.38624305429569   11.49506191140637    4.81521505929012
H         8.17432878737607   10.38996515601810    6.97079025230106
H         3.46136581103809    9.53770633162499    8.28459712112534
H         6.37347447536934    9.18396960028231    9.18357842388182
H         5.48819224220541   11.78681435791741    7.83966890592622

