45
CSD_code = DEXPOL | q = -1 | S = 0 | Stoichiometry = C4H21B18CoI(1-) | MND = 10
I        15.13185514098679    1.26639272117861   -1.27995821143051
Co       14.28026097910612    3.62224862059178    1.53290606197308
C        15.79951787413003    4.94808746050787    1.81140582821492
C        15.95704096708199    3.73982884937690    2.77094529181258
B        15.62324590084072    4.43676751323242    0.21672286833739
B        17.16292884266695    5.14208199931044    0.82367380499142
B        17.36224241159104    4.68896256188638    2.50782207107275
B        15.90160029682871    2.30468594480939    1.94627265652042
B        15.79802388480322    2.70996595565818    0.28265092875406
B        17.21769333241014    3.67599586065584   -0.15117501216459
B        18.26929168408646    3.83121538512447    1.28202451982901
B        17.45491608650065    2.94160711613965    2.58999580513751
B        17.40525854666043    2.30753315125159    0.96299067735257
C        12.72359915061312    2.33022336916586    1.37489650936688
C        12.88904536943896    2.79940108133462    2.84239347315697
B        12.64592107343910    3.63355869131684    0.31384587661990
B        11.18212118023291    2.71298963692753    0.76727954365846
B        11.35357664506848    2.16273491114868    2.42122721508981
B        12.95560222036327    4.44910589894984    2.93334034883779
B        12.73700466742577    5.05802946967199    1.31817326161336
B        11.14266137414483    4.48220658894012    0.76946975533961
B        10.35668103615910    3.57153457402607    2.08302975781722
B        11.48881620713109    3.57006604051202    3.44830629356684
B        11.34447885040538    5.01113063290929    2.44868141902259
H        15.33957097289780    5.85024025095592    2.20009105304005
H        15.57097241209536    3.84425277093395    3.78072318780765
H        15.10621457134116    5.13000842579977   -0.58629407992861
H        17.45380311724103    6.23374213050274    0.47507139602736
H        17.69583100602841    5.42505154637117    3.37024224785102
H        15.51356190400426    1.32557790409861    2.50277211573200
H        17.65589755808262    3.67782611946925   -1.25187689477377
H        19.44653853120609    3.92283852373745    1.19944171968368
H        17.93331846024261    2.42984980862659    3.54482261214952
H        17.95776310945252    1.30224372821064    0.66477850423195
H        13.12730181487920    1.35789846289709    1.10617317328706
H        13.44376821954752    2.15157119778913    3.51684126767584
H        12.92669057068549    3.50593655800531   -0.82230222397903
H        10.70413913984733    1.99420684615516   -0.03766953596095
H        11.09396010771587    1.07386787776067    2.79924689738988
H        13.55791640264062    4.95550419188292    3.82694200209915
H        13.12048886145777    6.11908924315664    0.95175117046815
H        10.51391310013619    5.08999971868973   -0.02862788440736
H         9.18213056291715    3.54391096995430    2.23050282774343
H        11.26051871264321    3.47226680043409    4.60684771441872
H        10.88181714282206    6.01776288994062    2.87230198495663

