105
CSD_code = DEXSOR | q = 0 | S = 0 | Stoichiometry = C44H50N8O2Zn | MND = 6
Zn        9.05205530987129   10.06808339566215    0.44348347687068
C         9.51607161413220   12.05335913252705   -1.39674256307551
C         8.18115060760432   12.54371535047343   -1.31977068370321
O         8.30387085524236    9.42910131496451   -1.28384724916785
C         8.03627411307142   13.35395328155474   -2.49210403902085
O        10.17262395527752   11.35148906985330   -0.58088960159677
C         6.86753470709982   14.14336597622767   -2.96583947540795
H         7.15604193839622   14.67507490586655   -3.86878480784280
H         6.54846043923583   14.85832480974021   -2.20950166091943
H         6.02488025246037   13.49150708161151   -3.18861077304844
C        11.29524340336970   12.34690783791625   -3.12239989203725
C        11.70942774218421   13.17064136494190   -4.16756991915225
H        11.04140763081789   13.94507956427867   -4.50831885531864
C        12.94785308282728   12.98051994608578   -4.74775331441722
H        13.26321310029013   13.62381191712039   -5.55647919996060
C        13.78602673845171   11.97349290060439   -4.29696807328105
H        14.75605332554681   11.82937089913893   -4.74980323573953
N         8.21271315335031    7.85317368205628   -2.97603010122891
C        13.36948723620246   11.14948184875516   -3.26498956122567
H        14.01676144306993   10.35780287314739   -2.91397636685646
N         8.83107724418137    6.68340294438528   -3.30924356204674
C        12.13075602601424   11.32555066696930   -2.67701117252870
H        11.80393780258122   10.67908732553966   -1.87918032846946
N        10.49481357955733    8.65668184734924    0.51881193466683
C         7.24218170915306   12.17591166311626   -0.33772174176865
N        10.31330245121098   10.87809596187033    2.38308471212446
C         5.86538828212219   12.72628963432114   -0.47471557624616
N        10.03944898144790   12.56088330463334   -2.55622437034587
C         4.91755705529728   12.04998331519944   -1.23370646938182
H         5.19135397193642   11.12957277478267   -1.72968634460943
N         9.13407378731073   13.35773900049220   -3.19566101609788
C         3.63627692740064   12.55507487927627   -1.36116825026883
H         2.91119820381572   12.02031971467339   -1.95849163280801
N         7.53735541488617   11.37918008395501    0.65265737130212
C         3.27139528545923   13.73992309232320   -0.73528249875923
C         4.22181404235271   14.40604347920049    0.02969639249731
H         3.95325080120172   15.32905949912638    0.52415723112597
N         7.44003582884550    8.74384036328663    1.50978114334521
C         5.50338187897487   13.90541673939230    0.16412768451276
H         6.23467748377424   14.43579818795068    0.75778989872390
C         6.47969506408427   11.02139270687883    1.57043962885843
H         5.53543150774852   10.85211332258071    1.03821295773185
H         6.30547181943102   11.84248146258035    2.28018259255859
C         6.85507642375402    9.76997270761906    2.36310151172838
H         7.60168264645626   10.03615974889888    3.10896945980109
H         5.95749103128803    9.39302908770008    2.88229010467205
C         7.95548362734860    7.65086668588066    2.31782285613827
H         7.15270978728720    7.14392579417425    2.87303288414171
H         8.68563047140734    8.02671427255135    3.02926278259348
H         8.44360190179560    6.92660805868584    1.66874149247348
C         6.44263200472006    8.21110217458127    0.59096002072513
H         5.56686684191782    7.82679574086939    1.13351755407103
H         6.88186293723316    7.40069907919207    0.01328700768706
H         6.12819235157091    8.98085443800817   -0.10628044877731
C         9.78398656068076    6.47977539116089   -2.44218158293257
C         7.16137767874511    8.33481142932234   -3.75523814370870
C         5.47145941771222    7.91481561124903   -5.41005972504354
H         4.97382062958421    7.23292205161027   -6.08447383920868
C         5.05996901974769    9.23562031090846   -5.33155319293008
H         4.24135852048321    9.58706535816988   -5.94244461067594
C         6.76051120570648    9.66666716045838   -3.68642727283110
H         7.27501008035813   10.34763712698171   -3.02822749998853
C        10.69891890961842    7.73878169564171   -0.38273959187309
C        11.91856278889468    6.88460181642059   -0.34376282735405
C        13.17769343405057    5.04925830413622    0.56459405807369
H        13.25834804684349    4.22827639831112    1.26315849035803
C        14.10070606801518    6.35766262573326   -1.20781097400581
H        14.90379756517983    6.56930333617653   -1.89951149684529
C        12.96038728392732    7.14038462397488   -1.22704525551597
H        12.86966269874878    7.95654642559590   -1.92925644897426
C        15.45026086549743    4.43967787806947   -0.29498008590500
H        16.14817360673689    4.73604318849304   -1.07376174210872
H        15.18400279514760    3.39424341741688   -0.44504680342419
H        15.95189758182346    4.51917269097559    0.66912690389205
C        11.58142457783819   10.35996295996309    1.87834786069330
H        12.39394464164557   10.52114313119864    2.60584238676535
H        11.81683686193000   10.89710377194917    0.96114257149827
C         1.89250615812444   14.30532186150193   -0.89178838660104
H         1.20376755228489   13.55404660074979   -1.27024947326538
H         1.90890616086593   15.13821251403429   -1.59531570667374
H         1.51849207770480   14.68045416321087    0.05900081628688
C         8.74814505235077    8.38906030476860   -1.83211774228718
C         9.81170714817431    7.51857001849699   -1.45629124267370
C        10.62302968821884    5.25595830254259   -2.55806294045844
H        10.18835528321513    4.61210853578220   -3.31821407130863
H        10.66839653387165    4.72292163720844   -1.61019525181390
H        11.64032417473514    5.50996332608384   -2.85111067280358
C         6.51597635230043    7.46178827948189   -4.62861572812490
H         6.85669148059698    6.44019445231287   -4.68183441298775
C         5.71116616250072   10.10533989265254   -4.47282386261052
H         5.40737299649210   11.14135058935272   -4.42197508453335
C        12.04107510292263    5.83487979292607    0.55913862028070
H        11.23536577146580    5.62732378127159    1.24977329408130
C        14.22343916853023    5.29952297261981   -0.31734962263677
C        11.49838435532278    8.87540491211659    1.53457565192555
H        12.49013618663265    8.54565954900954    1.20114454093096
H        11.23862014231938    8.29184133830371    2.42707697721609
C        10.14639857595870   10.50127108087438    3.77913797738442
H        10.97444078781711   10.88195623214788    4.39673431174018
H        10.11542519229604    9.41952363298274    3.88638707465189
H         9.21945834440469   10.91927909307087    4.16894861781365
C        10.29972968537953   12.33409769570137    2.30600926800637
H        11.08979008474728   12.77782832619720    2.92818403013962
H         9.33370521622234   12.70272095225873    2.64568611464374
H        10.44122790351903   12.64099654790930    1.27529781245434

