50
CSD_code = DEXSIK | q = 0 | S = 0 | Stoichiometry = C21H18N5O5Re | MND = 6
C         2.78886542381233    7.17699938634737    0.62225652839516
C         1.96135179026800    8.11653200435928    3.08877842627015
C         2.64954265133863    9.95362479568395    1.09831855076882
C         4.45774563552169    9.54075358990128    4.67316618990447
C         5.43082576739354    9.85478960290244    5.60393911024393
C         6.69336274386708   10.20880092155242    5.15631792151648
C         6.92410312077128   10.24757417851121    3.79257202027021
C         5.89440460897788    9.91505981659980    2.92535032146033
C         6.07354045559053    9.93106569657401    1.43431386049258
C         6.34095902990675    7.55525224090062    1.18531941755201
C         6.00858170061927    7.03310391235271    2.62860561316508
C         5.44281739857458    8.86308910975488   -0.63712812810020
C         6.78926531365283    8.92728187703411   -1.27934824374843
C         7.39748336105839    8.02881814431998   -2.13345225404226
C         9.64527787454159    8.06877884202874   -3.24671133105992
C         9.17952142337237    8.06170139811369   -4.68206328595207
C         8.71914880569937    9.24015141642366   -5.25729863570714
C         8.27058751460248    9.24776883696976   -6.56517616744166
C         8.28260651443505    8.07961295082388   -7.30970896080087
C         8.74194018649111    6.90416882398751   -6.74168834184090
C         9.18456602892512    6.89358073686310   -5.42977482147579
H         3.46396692684367    9.24962430759068    4.98611205004481
H         5.20410198389820    9.80357398471588    6.65636771920325
H         7.48473012401711   10.43870662201880    5.85274348356906
H         7.89249038090022   10.51044126359848    3.39688683373508
H         7.13073532403511   10.04810383522200    1.16714954621170
H         5.52954710639071   10.79525184179584    1.03006498820425
H         7.41059752418857    7.78498807179310    1.11894482791594
H         6.11274406889985    6.72724867509209    0.50529275334342
H         4.89594505103378    8.01116729312132   -1.05139999947284
H         4.88000209315858    9.77460884607325   -0.86434036938647
H         7.07164170401890    7.10571411620383   -2.56335702963578
H         9.92968665829136    7.06081903845535   -2.92939583409539
H        10.49991319864351    8.73974765278990   -3.11959882367437
H         8.71376821538014   10.15043788993748   -4.67462128001112
H         7.91316000386319   10.16680353383505   -7.00454103033784
H         7.93416625290651    8.08609145045274   -8.33138441723394
H         8.75305447364310    5.99137749410851   -7.31815716693841
H         9.54037604115245    5.97343425374231   -4.98831604705221
N         4.68018404262637    9.56570907941509    3.36239628949727
N         5.50287023099839    8.71123137342326    0.83305010930434
N         7.66480524768923    9.93689215073895   -1.06956393345857
N         8.73785654251249    9.71178861990508   -1.72898137036184
N         8.61004335596612    8.56807259152046   -2.38097943225546
O         2.45323877514663    6.40809113484473   -0.15735344118461
O         1.09547333375940    7.90792535156840    3.80659058515555
O         2.21741855766650   10.89139509781799    0.59148292230410
O         4.77532273234149    6.99419813041412    2.89605934114502
O         6.92700573247413    6.69703518678403    3.35265273903825
Re        3.50205696813643    8.42361283101487    1.93570819655781

