40
CSD_code = DEXTIM | q = 1 | S = 0 | Stoichiometry = C19H12N4O3ReSe(1+) | MND = 6
Se        1.72913187348345    5.60028541090957   14.03500857071787
Re        3.06642075886684    6.65143430965670   10.90948973031052
N         5.11235269026632    6.29063437770316   11.41751170523500
N         3.40492122434512    7.89915170899803   12.60956481952285
C         2.99601871517128    3.84338149716148   12.67654568607072
N         2.64615480306371    5.12936221079397   12.56490053566928
C         2.58018782439242    3.23635662532770   13.92028720996918
N         1.91410200312088    4.03872780639831   14.73925696311707
C         3.70438811316096    3.07063547685968   11.73661411519339
H         4.00131366392784    3.50995240414407   10.79695318498882
C         3.97871224358195    1.76571256994482   12.03134193802678
H         4.51203807206715    1.16093947848504   11.31428238709965
C         3.57512771742569    1.17483863176082   13.25075214556697
H         3.81504545487051    0.13842819582157   13.42869124592644
C         2.88731768327476    1.88549262354631   14.18903117272096
H         2.56106888567780    1.45415462279190   15.12094037427887
C         5.50690281788305    6.77336873314167   12.61156794878872
C         4.54697528195734    7.66477898391666   13.28453435275082
C         6.76432731624079    6.47635769487128   13.13298952440417
H         7.06635862397096    6.85984096237771   14.09291945714688
C         4.79758397750778    8.27373575060787   14.51305060473911
H         5.70726109501345    8.07075977223440   15.05258488815899
C         3.86838744278816    9.15302812848606   15.04091129251176
H         4.04938214394775    9.63164128170928   15.99027797059986
C         2.71329872131835    9.41454785518986   14.31963204672279
H         1.97244558088020   10.10917600208120   14.67932550182570
C         2.52435901553406    8.76137503927980   13.11370532029068
H         1.63792085145726    8.94606501098365   12.52088789980764
C         5.96657259513768    5.55365614071981   10.71182175595558
H         5.62637335621163    5.22007749269392    9.73998211532781
C         7.23468499424019    5.22781689501818   11.15984584488908
H         7.88715569803923    4.63056110568522   10.54483442402559
C         7.63665977155351    5.68726902122663   12.40431819018885
H         8.61315107289630    5.44931570536657   12.79531482405193
O         2.82444459509788    4.61475861247879    8.58490784061437
C         2.90572189799728    5.35917720688600    9.44537093888714
O         3.78957617703370    8.91814553016793    8.93312017552443
C         3.50346107463749    8.07147280157269    9.63847789995110
O         0.01443779030287    7.14956905649413   10.78540471033753
C         1.14105638165527    6.98071726650769   10.76784268808454

