77
CSD_code = DEXTEH | q = 0 | S = 0 | Stoichiometry = C33H36NP2S4Tc | MND = 6
S         8.57357083433666    9.58069846369981   11.82260420940066
S        10.54501793637274   11.17071013638719   10.38788495586824
S         8.38917339082112   14.02438557087780    9.94342153434533
S         5.93130723817466   11.97660854658143   11.54919820527781
P         7.38660683157193   10.95461980367030    8.92392245024769
P         8.94398697283646   12.91547807519805   12.86144043331656
N        11.00928672050840    8.73754953668541   11.28499813999037
C         5.53889299229384   10.99641000584632    8.94701861469418
H         5.27122326051491   11.97068922904191    8.52170019515101
H         5.11433434964383   10.20125782207548    8.32686675329008
C         5.01905533998018   10.90386851171012   10.36966950081615
H         5.10917409198693    9.89360689960626   10.77196610644272
H         3.97746018851233   11.21923846525718   10.43613907177292
C         9.01132150183134   14.74232636789505   12.58629731753947
H         8.00315367726409   15.09913874683425   12.82775208332325
H         9.73112356637970   15.22004446425429   13.25742961767773
C         9.32877101089762   15.05825118030108   11.13675486679972
H        10.37993746438135   14.88465053077961   10.90192625796239
H         9.07701382340113   16.08965224933573   10.88837196785211
C        10.13281074711780    9.72729911842458   11.17505717759890
C        12.34847664018383    8.78491676140812   10.73920160364190
H        12.97194326023647    9.44602742262971   11.35415074650294
H        12.32654793873327    9.18817578110114    9.72376888469730
C        12.81399585553241    7.33439520170771   10.81003268143440
H        12.48452904923667    6.79383895850110    9.92205335566908
H        13.89532851053977    7.25122989577874   10.89111775964477
C        12.08237175057393    6.80515934184108   12.04295157801366
H        12.59522115434980    7.13119169894782   12.94847776525562
H        12.00440827028302    5.72047513847802   12.05536833240706
C        10.71895198589537    7.48124927745219   11.94244278008834
H        10.01761947437769    6.90141562481443   11.32949078278651
H        10.24927085491803    7.66362021199424   12.91235645203043
C         7.77468613583841   11.56913030962248    7.25542973107826
C         8.92014052404097   12.33513015650281    7.07426056989682
H         9.53062722233983   12.58637443327671    7.93083970480629
C         9.26650071637538   12.78145412284737    5.81150471360264
H        10.15546574971466   13.38026277435781    5.67811852937107
C         8.47323135071919   12.46308785686381    4.72257183432291
H         8.73975246543428   12.81443859388488    3.73634282541888
C         7.33657359949323   11.68962495999491    4.89657562894668
H         6.72030475198155   11.43558973374222    4.04592001151331
C         6.98894880826707   11.23795076264997    6.15582093377570
H         6.10748697833735   10.62527601721328    6.28164859333012
C         7.84136057548043    9.20516269158428    8.69044290655961
C         9.11423859352055    8.94835504088403    8.18378937827180
H         9.72370891476902    9.77392963547980    7.83954092614351
C         9.59850376595070    7.65563542536413    8.13146998333704
H        10.58834668313393    7.46715885672346    7.73936493994264
C         8.81811123820853    6.60410050132176    8.58503745152288
H         9.19782184452412    5.59270078546737    8.55052148282512
C         7.55025472880086    6.85166797468456    9.08392573851375
H         6.94051552188453    6.03367843529782    9.44018930139035
C         7.06456780799203    8.14557382165172    9.14458723948021
H         6.08366342034272    8.32715252593277    9.55870854081813
C         8.16015254423317   12.81396642055217   14.50144794983921
C         8.60436761540971   13.61660332453669   15.54876959311478
H         9.40716299545319   14.32284121823452   15.38648042581394
C         8.02641123496589   13.50472604484177   16.79860617893283
H         8.36899043385049   14.13336537944654   17.60816943890228
C         7.01248320721489   12.58455379770022   17.01636847583566
H         6.56349617988128   12.50043283245840   17.99542226070490
C         6.58137085357121   11.77178635871872   15.98230225898091
H         5.79690711763921   11.04902508796028   16.15199778859675
C         7.15449324996647   11.88355604089198   14.72740425341370
H         6.82185776865150   11.25585807743008   13.91258927413642
C        10.62826271763311   12.41616218837008   13.34557682505918
C        11.78150306682388   13.08912166114463   12.96124642468058
H        11.71428810827400   14.02935805755120   12.43385715978433
C        13.02501924843009   12.55077054912920   13.24128329627305
H        13.91775525878399   13.07962813039693   12.93936015266085
C        13.12905403207248   11.33258840823697   13.89094316841903
H        14.10271605745780   10.91039432480059   14.09558341100439
C        11.98288092529534   10.65522950982604   14.27637604659524
H        12.05952935460146    9.70396166151846   14.78456963373687
C        10.74016574939163   11.19395947686941   14.00709901461677
H         9.83986979965749   10.66733825582233   14.29854149481533
Tc        8.13046439988825   11.95615873902904   10.89616232768298

