50
CSD_code = DEXVAG | q = 0 | S = 0 | Stoichiometry = C15H24ClN2O5PSiW | MND = 6
W         8.03082284013745   14.84874129639299    4.09699697077424
Cl       11.65581142083115   15.44693315978858    3.34783098249479
P         9.89183513912800   16.36640159117668    3.61309201334241
Si        9.87790765761334   18.91598621586434    3.40822735502656
O         5.61893815475439   12.96008519528403    4.72292907889601
O         6.14957362071183   16.59245548813313    2.29567623337739
O         6.89627695095344   16.90953101613717    6.16794789805218
O         8.96294589904161   12.77662328549763    1.92637603490843
O         9.76386866816453   13.11092670822886    6.05901449228643
N         9.81110654635417   17.49738526621228    2.36871289296126
N        10.24207208389048   17.67961191674685    4.60677120980038
C        11.24587665729677   20.18132495332529    3.04172657470974
H        11.32986145081709   20.89064411354823    3.85782540775778
H        11.00275204243545   20.74969958320714    2.15063291589196
H        12.21620560828429   19.71747305168687    2.89405822956282
C         8.16900138437180   19.71267479735857    3.67131274326980
H         8.18024639011825   20.39851410678751    4.51169241488232
H         7.40807130288611   18.96080125796085    3.86637968385114
H         7.86046530636319   20.27769929750414    2.79805781287329
C         9.71430834550263   17.34349417968550    0.92793125194758
C         9.36472131203831   15.90219794429604    0.56576989207999
H         9.37474496642686   15.77770824447984   -0.51473740260787
H         8.37412897969674   15.64010590232385    0.93263202150856
H        10.09670821757634   15.21985270192802    0.99472207538683
C         8.63975252855065   18.29044177334755    0.38960249076858
H         8.53259638434009   18.16404658187015   -0.68459833303528
H         8.91433718175585   19.32217125775616    0.59526745840232
H         7.68380682697784   18.08421504055842    0.86276849066381
C        11.07215286148588   17.69833058452558    0.30623763185207
H        11.03556371734008   17.58422439010954   -0.77408694039465
H        11.84315634108156   17.04226192978224    0.70270642641870
H        11.33490566459637   18.72556034055859    0.54259136613103
C        10.68808613536019   17.75494160320467    5.98677647692546
C        10.54462866319486   16.39751653100992    6.67057418807978
H         9.49774096008912   16.10822249753107    6.74117355640895
H        10.95690905428148   16.44259933924286    7.67610175795099
H        11.08865926557405   15.63725216280874    6.11248017735409
C         9.85711184597511   18.80246423195949    6.73069596498969
H         8.80134301817380   18.55124951160306    6.68144736634138
H        10.00296308672254   19.78211498698692    6.28213032841910
H        10.15741745668963   18.84696212940768    7.77434012292050
C        12.16687973979424   18.16614640381874    6.00050764451149
H        12.53517052616578   18.22134762285068    7.02167532453252
H        12.28953067354329   19.13734188113935    5.52957771726214
H        12.75863701063794   17.43688636253342    5.45278846057216
C         6.50320251313625   13.64682845351086    4.49296361570238
C         6.86339048346181   15.92290762264039    2.89031514612563
C         7.36081198344866   16.13370020541644    5.46542756645556
C         8.64058084986262   13.56101533885597    2.69051047238001
C         9.15741428241170   13.77747994345355    5.35844673924851

