76
CSD_code = DEXWIO | q = 0 | S = 0 | Stoichiometry = C38H30IrN3OS3 | MND = 6
Ir       19.68759749129639   14.74850506808233   21.10905330537934
S        19.20917901690029   15.31524273604498   25.75421039325477
S        17.85905733621575   18.37657154527209   19.22725696291900
S        21.55191121061912   10.80821013400134   21.70168235095950
N        19.22279918021135   15.45206720898185   23.16452774157656
N        18.40484569360795   16.08055471738241   20.28087043851720
N        21.02095375483274   13.33191981669147   21.77635967807678
O        18.24057299219530   13.23077433008928   21.69701948093343
C        18.36118835565824   12.60721991653720   22.80421508571108
C        18.05346295368214   11.22021902164453   22.84796467367239
H        17.72332241828352   10.76908106626312   21.92262062666115
C        18.20266459045142   10.47535246146585   23.98398817964448
H        17.98447898205449    9.41652869033223   23.96534502674634
C        18.64562340657570   11.07008628026857   25.16822661899299
H        18.77112644849883   10.47866384267926   26.06195198306769
C        18.91414999568409   12.41341396375706   25.18128400895874
H        19.25210864296424   12.88333999769576   26.09529571267631
C        18.78542411926061   13.21091572243796   24.03443304487667
C        19.05997881266218   14.61159670102899   24.12494385263836
C        19.72060992076041   16.90145024511547   25.03666104038734
H        19.24465625265048   17.71047052112355   25.58357455753482
H        20.80316707712846   16.98789220793948   25.14681180584834
C        19.29912381403819   16.83979517456849   23.56314852989692
H        20.06054183387697   17.33178358994192   22.94408696495950
C        17.94844200123142   17.54358652636408   23.28601450445816
H        17.67120161304907   17.28192377249572   22.26255706577118
C        18.10506698344301   19.06000005094410   23.35807610459003
H        17.17077559827544   19.54214056113199   23.07982710911721
H        18.88268170689616   19.39752029543171   22.67528165100229
H        18.36598105816529   19.38418658217955   24.36316937239675
C        16.82302546158854   17.05374067509793   24.19299604748448
H        15.88240153476931   17.50548107659302   23.88424676662590
H        16.99871375688323   17.31568957624094   25.23388028241973
H        16.71472474417692   15.97335960775088   24.11925437416665
C        20.98607964294931   16.21785020088876   20.62755406282052
C        22.36178858905881   16.29297463411731   20.83175640780756
H        22.89074675281465   15.44122278577311   21.23616969759465
C        23.07672521767740   17.43858977839590   20.52251542336317
H        24.14387112046939   17.46372507822383   20.69306442224997
C        22.44410013679675   18.55810148512463   19.99397877962707
H        23.01624674697215   19.44317200020237   19.75919312825898
C        21.08492362376172   18.52957869737921   19.77019209204486
H        20.56684507479556   19.38557132791247   19.36018436818392
C        20.37003262086946   17.37382204828794   20.08470033789010
C        18.95977317103286   17.21693808418568   19.90537296775188
C        17.05714878210021   16.04933918583531   20.03439940493287
C        16.18344968061887   14.99688657987242   20.29933697777807
H        16.57667138272879   14.09305463293511   20.73598473507892
C        14.84886154831236   15.15184307312837   19.99295381755657
H        14.16082766196123   14.34489584125858   20.19390049728268
C        14.36838901589624   16.33189500506798   19.42710039962437
H        13.31777925654464   16.42584623816722   19.19814659293798
C        15.21894656460406   17.38492232664578   19.15232281390973
H        14.85744800661803   18.30068773774970   18.71196127078507
C        16.56085604039928   17.23412944633015   19.45826529587447
C        19.94520392580139   13.72666457127390   19.39421514625230
C        19.51065465165930   13.97533456597679   18.09818175234756
H        19.11734577963979   14.94707706500552   17.83352168199216
C        19.57759869466947   12.99543946716837   17.12027803345722
H        19.23624240889115   13.21791401029046   16.11906279677497
C        20.06787002346627   11.72811344389122   17.40924265759779
H        20.10085653170519   10.97186933172473   16.63912361435513
C        20.51392492152416   11.44277319349449   18.68149842960884
H        20.90322606455786   10.46562891556946   18.93229094408543
C        20.46055154825278   12.43656376087701   19.65826377743857
C        20.95686218031805   12.27605381845908   20.99245715829350
C        21.61773621000346   13.05591975507037   22.97480938227893
C        21.95823019184159   13.96846949877333   23.97236582415297
H        21.78492899097345   15.01947062760287   23.80678501329801
C        22.52175550362039   13.50126490404967   25.13906015625925
H        22.77429789874374   14.19721248092628   25.92466411143741
C        22.77298533614052   12.14311231047054   25.32402607181716
H        23.20061402469302   11.80224708811457   26.25416922751468
C        22.50499777215398   11.23050654055365   24.32322762686310
H        22.72722874910943   10.18225433553616   24.44353092084960
C        21.94241919671076   11.69728044405928   23.14803683804211

