43
CSD_code = DEXZAH | q = 0 | S = 0 | Stoichiometry = C23H16CrO3 | MND = 9
Cr        4.10170232185325    2.62607097049382    5.15712852276772
O         2.19210356086971    4.24498758476879    3.54988319559564
O         3.76457889374361    0.77485244378004    2.85102575586304
O         1.53689193358386    1.29532815111647    5.86618221368365
C         6.29681253006926    3.23138401055607    4.92097923645422
C         6.22549255835657    2.02931616210805    5.66232020156437
C         5.48327270934725    1.95587451068957    6.84403279158622
C         4.74281083253993    3.06767049146772    7.29437370510840
C         3.34953465020087    5.99250353301766    7.80126150868085
C         2.88827449218547    7.29729487786691    7.75722301544538
C         3.26436652311470    8.14805230770368    6.72914606655909
C         4.12475683900794    7.72080798824693    5.72591874224210
C         5.56797791760655    5.74149523021457    4.83734363154599
C         5.57041140123495    4.32861785260842    5.36502178756828
C         4.80349858526900    4.25767830091972    6.56579889624461
C         4.20978471804529    5.56200699893064    6.80279540653140
C         4.61029306469996    6.43169441612063    5.77508561932620
C         6.99410608230325    6.33762067557721    4.91798200054545
C         7.03190591060916    7.76462372294651    4.45621445453564
C         7.14658149221725    8.80516903199285    5.36843729843921
C         7.15547631301047   10.12060195773709    4.93852972147447
C         7.04707466574900   10.41092153815703    3.58961361815491
C         6.93394940326344    9.37965602663784    2.67216524429778
C         6.92728006472088    8.06575648088316    3.10343680964986
C         2.94844365585853    3.63735712559685    4.17665784013255
C         3.94236645696990    1.48359516302203    3.74585943882771
C         2.54794315094141    1.80457261265689    5.63663491550005
H         6.94499490155850    3.29622764690438    4.05492442150704
H         6.83394619305405    1.18501823124752    5.35909861029393
H         5.51237966204430    1.05386408476020    7.44355465443775
H         4.21692707775932    3.02282739672865    8.24090576651609
H         3.03550042266289    5.32372759377885    8.58888576698505
H         2.21776499131549    7.65232700305082    8.52562441199832
H         2.88004337856687    9.15662870828637    6.70411106244244
H         4.40076590530153    8.38784028372226    4.92393904423727
H         5.21909276380287    5.79772723822852    3.80123698980054
H         7.65669875219814    5.73252143684364    4.29364874398215
H         7.34172110224686    6.27182142498403    5.95209968162235
H         7.22500412719528    8.58391069686189    6.42349724829518
H         7.24500826252193   10.92022765882088    5.65905048253174
H         7.05199816759747   11.43703966805782    3.25337635893899
H         6.85135539390247    9.59992973550106    1.61802634144672
H         6.84160817089991    7.26485102640535    2.38236877664029

