87
CSD_code = DEYBIU | q = 0 | S = 0 | Stoichiometry = C38H40Br4N2O2Pd | MND = 4
Pd        4.39447225771743    0.00002880445177   -0.00004230515445
Br        7.68762661138604   -1.44075372629698    3.32448802144600
Br        7.49671589292095    3.65768982964663    5.80691244071215
O         5.70006557828247   -0.19316236021652    1.56107327939343
N         4.29045742770000    1.96507969244227    0.40936606270400
C         6.06469323342010    0.68477613549766    2.40508970722329
C         7.00125395377388    0.32108693397740    3.41827806466099
C         7.42043107755666    1.16709480655013    4.40737509934590
H         8.12328071922179    0.83218086664948    5.15450577292272
C         6.93014131542910    2.47432184534267    4.42583860796225
C         6.07118825554419    2.91142795199785    3.45259176550685
H         5.72107005763753    3.93305535829144    3.45776408455138
C         5.63366846806113    2.04660403974232    2.43490560943753
C         4.80642619848198    2.58938920419798    1.40980632918574
H         4.63525857886335    3.66773599879627    1.47976734056991
C         3.56262546084664    2.75598637617222   -0.51545364385784
C         4.16443142148112    3.05989394175658   -1.74156794005570
C         3.50947883638665    3.93933066142781   -2.59180455984439
H         3.95886148428304    4.21308930251592   -3.53261936319232
C         2.28043333110382    4.46638535421155   -2.24789968087605
H         1.78051475224544    5.14723656566472   -2.91913886864014
C         1.66895939877733    4.10262512185550   -1.06152609771035
H         0.69175835425695    4.49623107990233   -0.83930138030554
C         2.29710616809903    3.24983477823590   -0.16662585327522
C         5.51313530047710    2.47203006269289   -2.10281695047183
H         5.67997234850905    1.55588427136699   -1.49599037527865
C         5.58293006817940    2.05210341934580   -3.57157201316125
H         4.72741403859149    1.42978488240675   -3.82472087392697
H         6.49113080239416    1.48005890656383   -3.75063317115911
H         5.59323519144564    2.91453199139375   -4.23287677362592
C         6.62387965087921    3.47140636599652   -1.76758448102168
H         6.62449395782092    3.70565428556791   -0.70435828099306
H         6.47861739313707    4.39598162078670   -2.32252396499762
H         7.59598251795206    3.05894975379834   -2.02875879915325
C         1.64430442071638    2.80643954916212    1.12910753655453
H         2.38007168208459    2.88621238768675    1.93943732542492
C         1.22521976200317    1.33421180575489    1.01557241565641
H         0.67728889980021    1.03177776911336    1.90600536547592
H         2.10421565792253    0.67779503673638    0.91008274920468
H         0.58614517871594    1.19727612817410    0.14584438829942
C         0.43903056752810    3.65657014493718    1.52579937999036
H         0.10033008796773    3.36527748287477    2.51798664711837
H        -0.38552480404889    3.51015190065200    0.83294350947870
H         0.69889777694967    4.71228627084198    1.55202583652262
Br        1.10036614723240    1.43992279966718   -3.32399565358755
Br        1.29635649314784   -3.65694751351740   -5.80954140364744
O         3.08887818764611    0.19308646227969   -1.56121142820602
N         4.49867792957416   -1.96490895745843   -0.40950812614868
C         2.72502183995409   -0.68473184847567   -2.40568755323660
C         1.78814230022302   -0.32134690637332   -3.41868962400247
C         1.36992549192676   -1.16715113252319   -4.40837483214968
H         0.66705996088965   -0.83241490257189   -5.15556892658454
C         1.86142901149187   -2.47391349605992   -4.42755317712932
C         2.72021500742804   -2.91095677654402   -3.45413228061255
H         3.07092739363916   -3.93238625741445   -3.45959675074580
C         3.15670515585968   -2.04634124051782   -2.43582934303125
C         3.98333924762335   -2.58919215016299   -1.41028935590639
H         4.15470894448400   -3.66749993538474   -1.48028998652866
C         5.22589616386562   -2.75588514782878    0.51573543792718
C         4.62315820139428   -3.06000261360203    1.74132692460918
C         5.27740573090499   -3.93967632439936    2.59185773726617
H         4.82718180637152   -4.21378120516224    3.53216913628969
C         6.50683347360475   -4.46644943956129    2.24891449782113
H         7.00629762037157   -5.14732628555267    2.92046394554194
C         7.11926805109223   -4.10237508397155    1.06312299274359
H         8.09673503599489   -4.49577704553916    0.84173832122123
C         6.49168614435244   -3.24966080049222    0.16775409674702
C         3.27422684676639   -2.47217323697944    2.10177568264143
H         3.10734240027641   -1.55650088780577    1.49426497020165
C         3.20410318324639   -2.05125314925559    3.57024266276298
H         4.05921562976615   -1.42820518473561    3.82296919825381
H         2.29552526270745   -1.47967910734146    3.74887548766997
H         3.19435912117452   -2.91320833536269    4.23217089270006
C         2.16380616743185   -3.47206685529429    1.76702004925834
H         2.16369563425927   -3.70731855506966    0.70401596455090
H         2.30897826991700   -4.39609932814155    2.32288497819458
H         1.19151301954519   -3.05955342873876    2.02738545786304
C         7.14518470948907   -2.80650525489000   -1.12771528255271
H         6.40977346206549   -2.88658670548077   -1.93842504455592
C         7.56432014847732   -1.33424327935770   -1.01449940174233
H         8.11193738585721   -1.03192569598093   -1.90517836014164
H         6.68553368630420   -0.67775327269614   -0.90868114353830
H         8.20379694385219   -1.19734058387935   -0.14511839363581
C         8.35060575988112   -3.65683029527942   -1.52363279460430
H         8.69042791708830   -3.36499991938795   -2.51526500197653
H         9.17449324665848   -3.51116054232270   -0.82985221517411
H         8.09035653362983   -4.71243317950672   -1.55080431744269

