31
CSD_code = DEYCUI | q = 0 | S = 0 | Stoichiometry = C6H18FeN2O2P2 | MND = 4
Fe        2.06246267106730   -0.18897677524452    6.67356727840007
P         4.19900426035665   -0.39736234436487    6.17499575433155
P         1.74340013563032   -0.94536859253443    8.71880985498450
O         1.70335989138020    2.56418826063429    6.93605616951424
O         0.83067168098783   -2.09944053122548    5.05763979609870
N         1.83528009431441    1.39151919222525    6.80596312410624
N         1.33949169976077   -1.26623009295763    5.73321639376988
C         4.57301190247152   -0.32707882356482    4.37806065624863
H         4.20450463072743    0.61988423403791    3.98308779504512
H         4.04378059454733   -1.13858903316516    3.87877479093757
H         5.64505268708286   -0.41510529546775    4.19615318660716
C         5.13098428755771   -1.92418457946561    6.61058477469749
H         5.15628196923771   -2.03794247812369    7.69436021887298
H         6.14890794730651   -1.87737118969317    6.22282111013859
H         4.61381721270179   -2.78224549394614    6.18175768197554
C         5.37527020314414    0.87302292325875    6.78741514243191
H         5.02128244101812    1.85304428896136    6.46876758319658
H         6.37624342327120    0.69453812979152    6.39342228393840
H         5.39734938675144    0.85171335346788    7.87660232251401
C         1.67553092605006   -2.76023785114627    8.99285916639383
H         2.63935890243909   -3.20179033291618    8.74135833473733
H         0.91969640228421   -3.18097668012175    8.33032344530467
H         1.42515348082628   -2.98491449771470   10.03007140896990
C         2.87035607397910   -0.46066586004331   10.09099309993619
H         2.90371875780017    0.62719152363914   10.14579135476683
H         3.87486029187999   -0.83003635943292    9.88460486020564
H         2.51791855096947   -0.86593621377636   11.03983198728176
C         0.13874965014581   -0.45882559267087    9.46874345111157
H         0.03053840404303   -0.87675818546468   10.47062045504173
H        -0.66727578864872   -0.81557563458221    8.82719249018925
H         0.08913722891482    0.62911053160508    9.51275402825106

