109
CSD_code = DEYCIV | q = 0 | S = 0 | Stoichiometry = C56H46NO2P3Ru | MND = 6
Ru        2.67964479009051    2.75346452986359    2.31343203382171
H         1.94669207810458    2.75627587826819    0.97603532542570
P         4.06872162773411    4.26828490450998    1.22096055342300
P         0.58321751231151    2.11349583485693    3.10104282859783
P         3.91993163121361    2.50706499170629    4.29329596038382
O         3.54433035791527    0.05190507290455    1.39002991412332
O         0.63419060465132    6.61086462182983    2.70000476032246
N         1.98164735381451    4.68069910434063    2.71316946410207
C         3.25182544429493    1.09402715515658    1.79631875044285
C         1.27948773624823    5.62696573081001    2.67350924478528
C         3.28193861928780    5.28005636536419   -0.09013997599049
C         1.92996708950501    5.22033693595331   -0.39639716913432
H         1.28130828617440    4.54564181489310    0.14335731080410
C         1.40074319777835    6.03135984540732   -1.38571300352466
H         0.34407603648497    5.98122843486690   -1.60453580273628
C         2.21654989076837    6.90401528191792   -2.08336991785256
H         1.80219141717212    7.53778183497155   -2.85378002697135
C         3.56963195168344    6.96467281258735   -1.78816568855079
H         4.21250522696088    7.64418065438558   -2.32907879023647
C         4.09956577440221    6.16044368453255   -0.79836294410469
H         5.15455900240583    6.21784738147855   -0.56659628440149
C         5.46337178331248    3.64109191359990    0.20833160977331
C         5.15616465566354    2.52851597772909   -0.57132344912601
H         4.15515956373631    2.11374034526640   -0.51374502349049
C         6.10719327174744    1.96224586238022   -1.39739836090387
H         5.85858919246171    1.09753724238595   -1.99508232128153
C         7.38195344396865    2.50400024221211   -1.45250769521881
H         8.13241762541509    2.06024776761280   -2.09040161958109
C         7.69049833679364    3.61801681393782   -0.69115469064189
H         8.68105587457305    4.04764589103227   -0.73888814154508
C         6.73696618268706    4.19081558319270    0.13351213260284
H         6.99394349397099    5.06429603326427    0.71591329909127
C         4.82436185802687    5.59411238290791    2.22244087914510
C         4.21309527495467    6.84174509843796    2.32492042562683
H         3.32617218342349    7.05817844116977    1.74708414063191
C         4.72841626203232    7.80182837612467    3.17698743264005
H         4.24160584062664    8.76341596677517    3.25099523040034
C         5.85478064660394    7.53200914612433    3.93684526998437
H         6.25049839090299    8.28195466190651    4.60617804206859
C         6.47201237679001    6.29656137767915    3.83480457577078
H         7.35289299156566    6.07687804693910    4.42111430040093
C         5.95991824692788    5.33312633407281    2.98535549797492
H         6.44563849064720    4.37209291743865    2.91049939189087
C        -0.68919039973145    3.11941728107135    2.26161365998410
C        -1.42862329892372    4.10640992266400    2.90062131533784
H        -1.31328575798134    4.27547975299467    3.96164190699966
C        -2.31006150656815    4.89045268365592    2.17512701417102
H        -2.86885049091479    5.66605915524900    2.67735535543270
C        -2.46479223241806    4.69354519797785    0.81470542275175
H        -3.14610391914490    5.31469429119468    0.25185390917290
C        -1.74146655261740    3.69891717456087    0.17408464632156
H        -1.86143075017444    3.53794762934846   -0.88788741897481
C        -0.85688203424704    2.91836965910698    0.89183803991234
H        -0.27924630265214    2.14661018177037    0.39676589026878
C        -0.02816607971061    0.41752779683625    2.81622787305177
C         0.84417810132792   -0.63040009796600    3.09313629755168
H         1.84623867890781   -0.40804622063667    3.43245803595925
C         0.43547110430749   -1.94191272160188    2.94143697668499
H         1.12257672038038   -2.74623011637455    3.15928307289021
C        -0.85044685778360   -2.21919942848825    2.50714652831776
H        -1.17086026394151   -3.24284102079627    2.37987753260174
C        -1.72703497383688   -1.18083384165064    2.23780921623439
H        -2.73253457574669   -1.39495795279346    1.90518962254206
C        -1.32401632219180    0.13336880000020    2.39596581132979
H        -2.01726029644430    0.93795734651858    2.19432830952157
C         0.12202476196645    2.35313755493384    4.85246142612231
C         0.57516131999331    3.51244606183965    5.47917246301189
H         1.16086988206046    4.22459795970473    4.91350711628457
C         0.28442432689598    3.75098191916280    6.80931071967917
H         0.64925045345945    4.64982524946761    7.28532739941025
C        -0.46489211038318    2.83184815461386    7.52688309412302
H        -0.68879012412777    3.01150087240777    8.56828380729204
C        -0.92656316052936    1.68270490229722    6.90616566995498
H        -1.51513639342348    0.96806654888749    7.46352249712224
C        -0.63699483621974    1.43887205818077    5.57461415000371
H        -0.99385938412981    0.53502601803837    5.10289646261896
C         5.73768236029790    2.30903131635668    4.08556895016696
C         6.64828179235217    2.58649306861426    5.10017914715156
H         6.30691304378407    2.96432372662263    6.05203670944810
C         8.00401222797660    2.40332906318911    4.89045608857997
H         8.70046127870962    2.62951229057836    5.68508244757935
C         8.47116520789849    1.93763322112423    3.67282089217504
H         9.53059956255186    1.80071451030996    3.51422073606004
C         7.57248560942435    1.65459578586090    2.65790119850273
H         7.92204578095743    1.29823162618174    1.69987714237165
C         6.21787561645973    1.84086853346655    2.86445125642246
H         5.52409474065025    1.64208769051459    2.05785830192569
C         3.88208871976549    3.63649771923994    5.73049137593555
C         4.12665150439654    3.22771285984383    7.04048629265513
H         4.33101027006448    2.18827542434130    7.25821992338167
C         4.10670124221415    4.15099607563911    8.06967724430478
H         4.29278974498374    3.82473452175054    9.08316477809409
C         3.85351567595513    5.48822022381688    7.80763204824654
H         3.83774144441541    6.20312204924986    8.61753234346020
C         3.62030363077352    5.90262457265134    6.50765267341251
H         3.42285702322518    6.94256791780346    6.29246079604457
C         3.63402539677869    4.98131283064084    5.47632996213863
H         3.43357995855691    5.30342363562976    4.46411475666328
C         3.58297304289195    0.88103596895372    5.07004841210900
C         2.59621842053631    0.74283193548445    6.04316184046120
H         2.09299421741295    1.61747708957339    6.42688980964908
C         2.26228917214387   -0.50701643559852    6.53147779919615
H         1.49224522074323   -0.59504129255389    7.28415256940701
C         2.90785790480955   -1.63671099325736    6.05785464191508
H         2.64335725270275   -2.61243445567163    6.43790501048256
C         3.89677140752333   -1.50826466338447    5.09673419235779
H         4.40845323907787   -2.38382032755524    4.72431910991136
C         4.23130056129386   -0.26022825010009    4.60253941859211
H         5.00001938722064   -0.17504930411412    3.84728083857532

