35
CSD_code = DEYFOE | q = 0 | S = 0 | Stoichiometry = C14H14N4S2Zn | MND = 4
Zn        4.43745596817101    3.15625322528642   10.75511532304223
N         5.96318740790945    2.65092465496470    9.86197380526473
C         6.70706335837069    2.08363881360223    9.14089272652543
S         7.67080336428395    1.34990291953189    8.14099821736731
N         4.34978144510788    3.69693502378872   12.51082132043847
C         4.03992891354384    4.29740260588300   13.47962700351768
S         3.57872128059890    5.07226717492819   14.76581371632630
N         3.68330965338277    4.81435510966755    9.73873964975909
C         2.55647723921769    5.44696792264760   10.07255162256506
C         2.27756483857860    6.72363337568413    9.58933143112448
H         1.36141551650583    7.21277956350767    9.88140852649702
C         3.17870422160662    7.35158750662115    8.75112883413628
H         2.97986695405698    8.34316864835133    8.37346051001849
C         4.34190538703168    6.67886241614048    8.40483437770922
H         5.07349940486725    7.12319568600258    7.75005330872248
C         4.55059009126927    5.41732899971928    8.92599072752905
H         5.44161940401332    4.85349177986047    8.68782571006008
C         1.60685405891903    4.75590236487061   10.98804903604843
H         1.66385680689108    3.67748961566433   10.86089423686825
H         0.58755760589992    5.09330629066894   10.81835260606194
H         1.87456541224127    4.98279575323080   12.02031311802261
N         3.23747326171220    1.45918437606719   10.60187592279562
C         3.00513841301992    0.80787956598709    9.46025924228922
C         2.47136551764744   -0.47895977224975    9.46176146576474
H         2.29838837116425   -0.98277980114959    8.52359745394619
C         2.17800091490394   -1.09812496513586   10.66169300419332
H         1.76915466180449   -2.09708549695998   10.67960771798847
C         2.41818397307170   -0.40695336444157   11.84066405013805
H         2.20227781724327   -0.84450095386592   12.80157098080510
C         2.95077458168024    0.86452701684054   11.75947726649588
H         3.15711347076399    1.44331426173035   12.64888367142560
C         3.34520694572139    1.49060480650657    8.18130741254027
H         4.39243748835953    1.30351856907485    7.94265552484425
H         3.21410763848069    2.56631562519747    8.27184535219559
H         2.73594861197902    1.11317068173792    7.36412512696670

