64
CSD_code = DEYGIX | q = 0 | S = 0 | Stoichiometry = C31H31HfP | MND = 12
Hf        2.17544608337420    0.71078529514818    4.12081637108808
P         5.13946151268062    1.92882581971465    3.20136855732216
C         1.86135216257569   -0.75948110742523    2.49047515472649
C         1.69070684354377   -0.19453283820600    1.06757074961748
C         3.45957629074264    2.13192461070669    3.09456969675870
C         6.02955405785346    0.29224662894768    3.10296214368181
C         5.59717834240714   -0.50299995867157    2.04362842565725
C         6.09623341399713   -1.77776379536363    1.86279558141973
C         7.02085566577799   -2.28567139428360    2.76282614359311
C         7.44496875857158   -1.50877288226082    3.82759339897011
C         6.95578643888780   -0.22503411141279    3.99991257684628
C         5.76518618691493    2.71677356893380    4.71923364649922
C         7.12548360141546    2.94035466100575    4.89963522511704
C         7.57046419996146    3.61216639809197    6.02461073733522
C         6.66149736554529    4.07304786217611    6.96289726133425
C         5.30223209330966    3.87996834447072    6.76740304062571
C         4.85481415493484    3.21317322333043    5.64244355224222
C         6.03407267926040    2.88761430871288    1.93269522100000
C         5.64178059536865    4.21790395668997    1.82207646927668
C         6.23705313300514    5.04496058447302    0.88978102670423
C         7.22711061985608    4.54532816090929    0.05754329872842
C         7.61723938131800    3.22092084876574    0.16282357395816
C         7.02654482974230    2.38999913466428    1.09973634910535
C         3.74812954943615   -1.22442685010501    5.12321750501842
C         4.09657633988273   -0.01817079222168    5.75132861400860
C         2.99058807694459    0.41421267205993    6.51650600373964
C         1.96440035773277   -0.53991747228071    6.36138418657434
C         2.42840627618504   -1.54116873384375    5.48867902985141
C         0.47392129016303    2.04954873227458    5.41835841895107
C         0.82704853580738    2.99252771264021    4.43180266966680
C         0.32995762153732    2.54048676066218    3.19761776827229
C        -0.32943679101623    1.32209385887813    3.41087269730054
C        -0.23944186903859    1.00531398223401    4.78144478676762
H         0.95530420069326   -1.34977893431538    2.71303387440259
H         2.68726278537684   -1.48832210824909    2.44246615641495
H         0.89073641876908    0.54526244366153    1.02031078942610
H         2.60883039228459    0.27872690566304    0.71653344520078
H         1.44617694582138   -0.98718231983705    0.35329590069720
H         3.21493778574175    2.18558215446694    2.02052173105906
H         4.41291905381429   -1.84948826877366    4.54627144159932
H         5.08765234409881    0.40399259963542    5.80130875227740
H         3.00952745644646    1.21269304242965    7.24610506972552
H         1.05414303284069   -0.58524507470949    6.94167683859819
H         1.91691497369130   -2.46490928117344    5.26098867389288
H         0.55318652070134    2.19859443340736    6.48706359941946
H         1.27302828009095    3.95979336694664    4.61165613038358
H         0.36812925197336    3.08697788392098    2.26836167167097
H        -0.92232339907169    0.78599237166933    2.68501509479283
H        -0.79289574822102    0.21907466080841    5.27703344108467
H         4.86717281157629   -0.09221488355169    1.35475373235598
H         5.76177519512457   -2.37947802542130    1.03000571020872
H         7.40551639217136   -3.28698083870115    2.63699143225629
H         8.16129996880813   -1.90569658696452    4.53239807469895
H         7.30246287558994    0.36884155173107    4.83329726234243
H         7.82837718696230    2.59471967033915    4.15291237686286
H         8.62785002017948    3.78210554880066    6.16752952198305
H         7.01199850581232    4.59520349705877    7.84097205117350
H         4.59505667671401    4.25787725680292    7.49157811052331
H         3.79447982228865    3.06827208256413    5.45038259150691
H         4.85811947970506    4.57988762166522    2.47448615894710
H         5.93276996934063    6.07830141087135    0.80895616366073
H         7.69441501273163    5.18862727693931   -0.67352623107862
H         8.38758393366791    2.83159924071405   -0.48727103144653
H         7.33914405548763    1.35853411218961    1.18128158365038

