18
CSD_code = DEYKUN | q = 1 | S = 0 | Stoichiometry = C8H5Cl2FeO2(1+) | MND = 8
Fe        0.39365254560749    1.41112754288134    4.91184335368826
Cl       -0.53632760602279    3.89106282990513    6.53352988704830
Cl       -2.44592740647052    2.75149453674630    4.85102576646089
O        -1.56969741620886   -0.69901214756626    5.23043963220512
O        -0.40768928710566    1.66767915684956    2.13669322334057
C         1.89524361032150    0.27269453698080    6.09729036024014
C         1.89927200773227    1.60664970679276    6.57202918248014
C         2.29748870829288    2.45035845584451    5.50839160315090
C         2.53817624482809    1.64125513802752    4.37188750968431
C         2.27384819743891    0.29167769352630    4.72878592084389
C        -0.79678098033552    0.11560554333165    5.11816062608107
C        -0.08287811751475    1.57471372362603    3.21334555006972
C        -0.87042138455288    2.68451225578261    5.42692286612158
H         1.75417235745304   -0.61038577075996    6.69888068736777
H         1.75620805836018    1.90700159660882    7.59615499204105
H         2.50823847120041    3.50374356701321    5.58282382811551
H         2.97025032845416    1.97270175678434    3.44175665227157
H         2.49737166852193   -0.57338012237452    4.12593835878916

