64
CSD_code = DEYKUO | q = 0 | S = 0 | Stoichiometry = C32H25Cl3O2PRe | MND = 6
P         7.23295540566179    4.37998308948111    3.08132620288477
Re        6.38989595071454    3.87717728962741    5.30031395466979
Cl        5.62491552024371    3.32543039931040    7.43466411302381
C         7.32295579801962    6.41518343506245    6.24791001815530
C         8.49188508824020    5.63340136210458    6.56549361566249
C         7.13078698199015    7.85872593230553    6.35216085778474
C         5.82450330262548    8.34147045282660    6.45970841662534
H         5.00909761302761    7.63523363616025    6.51306860314086
C         5.58403626622185    9.69998726594685    6.50551050099993
H         4.57086354739156   10.06224404038746    6.59564699279502
C         6.63922744112396   10.59545874562393    6.43785219837576
H         6.45177390411424   11.65804000853468    6.47723291075136
C         7.93626347260491   10.12330572253667    6.31231374224941
H         8.75945149660499   10.81915787051463    6.24417234015306
C         8.18687694142446    8.76582506586137    6.26325413661175
H         9.19646204529696    8.40766636966448    6.13670338051393
C         9.66622327552737    6.14155364698523    7.28607542327032
C         9.53013483541105    6.98697091596172    8.38592798069629
H         8.54722528469782    7.29679232908741    8.70522250938186
C        10.65379629633007    7.40308035215805    9.07391750956707
H        10.54614381856892    8.05183340050740    9.92999375495301
C        11.91431367817211    6.98737592497009    8.67277942195267
H        12.78861809642106    7.32003851688113    9.21184961357851
C        12.05131024616368    6.13671984593227    7.58792144529878
H        13.03144800697439    5.80386885727870    7.28070853407977
C        10.93247828502860    5.70464266359219    6.90118883506163
H        11.02452451874094    5.03579964107519    6.05842987738032
C         6.16552755570415    3.94692420398795    1.67935886603022
C         5.59482455663842    2.67703519531175    1.68085281415482
H         5.77712202299356    2.01379820035503    2.51594564317822
C         4.79284260272967    2.28012442452484    0.62771334810417
H         4.34482935213745    1.29807034680977    0.63371373831207
C         4.55794332279599    3.14465474294650   -0.42978349956686
H         3.92659889339006    2.83646410230420   -1.24980236666165
C         5.12800470305665    4.40679595912323   -0.43450412992966
H         4.94438104739432    5.08100643305500   -1.25839424691838
C         5.93183056280395    4.81230471195262    0.61613796615594
H         6.37036957207323    5.80077858453422    0.61217794369566
C         7.43202996475404    6.17926634872211    2.97247469939283
C         6.27064260898123    6.94895536805315    3.05242022042386
H         5.31076570918927    6.44977052536163    3.09997951515945
C         6.35646058055156    8.32669426833222    3.08233864085184
H         5.45793166020222    8.92213512047156    3.14093219086938
C         7.59788447969316    8.94459288023917    3.05017848860544
H         7.66351504536260   10.02158964293110    3.08070723799676
C         8.75209285010582    8.18250222905601    2.99295822492269
H         9.71823408847729    8.66513218692358    2.97980354268249
C         8.67488987875591    6.80019078055998    2.95860229132438
H         9.57535363680819    6.20261446841675    2.91945904116919
C         8.84720305121128    3.69902876347372    2.60042253007839
C         9.25736160703222    3.75898283573068    1.27091294314248
H         8.60429485752809    4.19154832142963    0.52587129357450
C        10.49501681764704    3.26102384496653    0.90924641512164
H        10.81183411076738    3.30698440479683   -0.12227059609312
C        11.32673343777395    2.70057380295008    1.86652470056002
H        12.29126331068375    2.30916620909128    1.57878261226245
C        10.91929778049454    2.63757465628086    3.18862884770314
H        11.56455439829291    2.19529753839711    3.93308825265097
C         9.68115764375318    3.13354386605238    3.55884814139900
H         9.35614361711273    3.07933939978851    4.58762192387905
Cl        6.81421191077367    1.76084423710205    4.96650140456015
Cl        4.25225011697584    3.91040016455007    4.54273256860272
O         6.41629366231434    5.67193711786698    5.73074875921274
O         8.44414186572246    4.42978733312116    6.20322314378276

