70
CSD_code = DEYLAV | q = 0 | S = 0 | Stoichiometry = C33H29Cl3O3PRe | MND = 6
Re        0.08090803516390    3.01934570869197   10.73281933927524
Cl       -1.09400194573507    2.85245155717385    8.90472517314066
Cl       -1.66500763586007    4.18213610841576   11.72917445211898
Cl        1.09919248117716    5.00369023349679   10.29484631731916
P         1.81778465138239    1.67891713656888    9.68649708550626
O         0.95944010244286    2.73517503658542   12.34443605908877
O        -0.76623441623649    1.08720839260751   11.67645682103350
O        -0.01727845497014   -1.45783217638990   15.63668991369875
C         1.52971611294896   -0.06159840625345   10.09842707865586
C         2.25709554912316   -0.71996983508213   11.08381954262127
H         3.08271501452286   -0.22101935710898   11.57295853345364
C         1.92283862976152   -2.01619290590835   11.43584224095662
H         2.49701279268720   -2.52778718573715   12.19499322880201
C         0.85811685445456   -2.65259292724832   10.81933068298557
H         0.60685024244157   -3.66878526733956   11.08810205978582
C         0.10746652567863   -1.98446991468333    9.86287672201286
H        -0.73705886946946   -2.47314135630110    9.40000481079800
C         0.43313993278911   -0.68994892910152    9.50927279250935
H        -0.16040572057265   -0.14676668000052    8.78612258236723
C         1.93931890840365    1.74498623418713    7.87859736899222
C         2.13389065609109    0.62089589465349    7.08474665844041
H         2.18016337340494   -0.36245209476045    7.53194429678272
C         2.25569301733692    0.76418119659087    5.71375397319611
H         2.40121731979980   -0.10970271799761    5.09558769238911
C         2.18936290557245    2.02043566563378    5.13465737015677
H         2.28108326743709    2.12417732201397    4.06372747550954
C         2.00232124255689    3.14239071675201    5.92685280671852
H         1.94923482797100    4.12134933329819    5.47531961972436
C         1.87720355031820    3.00865437884290    7.29655288169825
H         1.72431581453015    3.87581429200095    7.92600301839179
C         3.53944004345181    1.97939844246979   10.19241106651434
C         4.54899708427341    1.17120641035408    9.67386419950014
H         4.29897994678291    0.38024093274747    8.98007529216204
C         5.86194130494459    1.38380760417675   10.04721869784957
H         6.64382227260329    0.75633020815070    9.64528192636226
C         6.17585289067222    2.40251680877470   10.93443432366012
H         7.20335395477277    2.56559695004600   11.22389134393626
C         5.17559945215044    3.21393732174776   11.44167766876982
H         5.42197269385278    4.01391402791903   12.12356685580364
C         3.85760622828757    3.00756860543510   11.07073401454752
H         3.07631680598525    3.65345513143941   11.44548285935528
C        -0.93826410394399   -2.49268910858934   15.26250040441239
C        -2.12260273325614   -1.90047859574918   14.49139621928747
H        -2.81759650360008   -2.69640118053490   14.22505870973881
H        -2.64102956228648   -1.19816068317721   15.14801145383568
C        -1.64289471764766   -1.16124979283781   13.24837289631985
H        -1.32890842130498   -1.86057712953379   12.46830711289284
H        -2.44513051348204   -0.55396715920258   12.82497605395467
C        -0.50188176773460   -0.25828408508442   13.62211441524877
C        -0.19740373027221    0.83672844049961   12.77646047520254
C         0.83650553393973    1.77051544895149   13.17837557449730
C         1.58522276792499    1.56702970512125   14.37243507143050
C         2.61249627310404    2.43870121452972   14.76186729325847
H         2.83294364134005    3.29065284573587   14.13663758358933
C         3.31408686969868    2.20778468200601   15.92010278241474
H         4.10323784465583    2.88213107641463   16.21699706490510
C         3.00754234231620    1.10543626121453   16.71873201196249
H         3.56191037082472    0.93408498296591   17.62912620345004
C         2.00173977075663    0.24068261857312   16.35373681350657
H         1.75597747830582   -0.61046787783753   16.96901443752486
C         1.27138227383271    0.44872167356988   15.17723838462947
C         0.21084249460578   -0.44672538165791   14.78191007210737
C        -1.40875470554390   -3.10910074888552   16.58016323742278
H        -1.93606375468576   -2.36711215900291   17.17393710093577
H        -0.55283275013777   -3.46048160058265   17.15001615423622
H        -2.07368827049226   -3.94520465960724   16.38535176326773
C        -0.18233864329550   -3.53261606440887   14.43055632132753
H         0.28790604100631   -3.06022582595054   13.57264778166640
H        -0.86464662124514   -4.30458711563867   14.08583178746664
H         0.59436565365410   -3.99336167798365   15.03644797293261

