55
CSD_code = DEYMAV | q = 0 | S = 0 | Stoichiometry = C30H20HgN2S2 | MND = 4
Hg       -0.00022627222679    4.28936136913220    5.48540901967351
S         0.46819007200134    5.09867113760224    7.75172943331962
N         1.40932889314802    2.46122462706122    6.42320560961882
C         1.76955100158741    1.38703397923394    5.74702832501447
C         2.23953049664434    0.22680453237695    6.39467718111171
C         2.34536766822142    0.22463053003665    7.75536349858509
C         1.97723464693048    1.36666499739577    8.49614601297840
C         2.07825302638404    1.41810464740884    9.89597796223181
C         1.70383899326453    2.55456731491851   10.56465920069815
C         1.21247993029755    3.65530485588986    9.86747088220804
C         1.08897121234522    3.65037046664988    8.49020430112603
C         1.48884509714390    2.48903275272299    7.76649456297623
C         1.67772390799208    1.44200703403781    4.28140879109995
C         1.16957404443261    0.36416289543227    3.55964458192437
C         1.07252521310607    0.43010366852302    2.18255963189742
C         1.49183142449223    1.56471218808805    1.50724216562921
C         2.01345934456004    2.63494082907445    2.21393759691415
C         2.10597983222476    2.57812234052262    3.59356883318181
H         2.53139108643145   -0.62756729075235    5.80374701106027
H         2.71423190958965   -0.64324856769448    8.28427292621712
H         2.45634411145915    0.55578911338243   10.42490902568732
H         1.78251687118660    2.60498782985856   11.64058766940711
H         0.91470293228188    4.54409294279892   10.40215420565375
H         0.82351166904296   -0.51591300485197    4.08295779943768
H         0.66686331520769   -0.40679524172944    1.63346611269960
H         1.41267523766909    1.61326645024375    0.43185183534911
H         2.34859052353567    3.51812803760046    1.69175266074045
H         2.56603382080512    3.39440498395443    4.14184422049424
S        -0.46813259225229    5.09854869045323    3.21889403033569
N        -1.40937738983534    2.46113233317151    4.54728737655853
C        -1.08896834858401    3.65031097638443    2.48033292724869
C        -1.76958933954678    1.38693829983795    5.22345509209144
C        -1.48887276838229    2.48896301002236    3.20400196080901
C        -1.21244723063581    3.65528390751882    1.10306601017684
C        -2.23957803970522    0.22672033005289    4.57579064065506
C        -1.67773188474867    1.44193766639400    6.68907389565368
C        -1.97726515624800    1.36661417080863    2.47433117474716
C        -1.70382021511509    2.55456405176468    0.40584938965457
H        -0.91464214290630    4.54407404319294    0.56840137898780
C        -2.34541783715201    0.22457480437501    3.21510231887200
H        -2.53144133887905   -0.62765530671050    5.16671205998749
C        -1.16961627994393    0.36409301940826    7.41086490394717
C        -2.10589267693676    2.57810862559520    7.37688595927596
C        -2.07826591311125    1.41809354664400    1.07449904488450
H        -1.78248312955027    2.60500889522107   -0.67007956843968
H        -2.71429181078676   -0.64329360235173    2.68618257890068
C        -1.07254439618789    0.43007425170570    8.78794630763497
H        -0.82359600200019   -0.51601213419909    6.88756880751185
C        -2.01334525313231    2.63496790221888    8.75651466377268
H        -2.56586985191810    3.39441765334873    6.82858179942959
H        -2.45636664932508    0.55579605236577    0.54554559978652
C        -1.49178577675297    1.56472204480629    9.46324053424975
H        -0.66692211732511   -0.40683199223793    9.33706116170047
H        -2.34842561225733    3.51818645814304    9.27868730794305
H        -1.41263025654000    1.61329688314780   10.53863158668954

