53
CSD_code = DEYMEC | q = 0 | S = 0 | Stoichiometry = C27H20AgF3N2 | MND = 3
Ag        4.10201352858067   11.93264434419736    1.59640822841042
C         2.58884320937917   13.31091537474263    0.75296746192976
C         3.89241911187753    8.65014430807374    1.62334786492042
C         4.21013957381392    7.32262238947341    1.94665551488915
H         3.59461896401621    6.52138636605372    1.56598903298710
C         5.31668951661455    7.03884288070825    2.71642197159882
C         6.09337448804579    8.12363745509958    3.19628850257976
C         5.70973950628801    9.42585098250158    2.80633276075021
N         4.63450716803692    9.65678021916903    2.03581905453171
C         7.19034502549411    7.95452446676847    4.08338022237607
H         7.41809947976890    6.96067552255733    4.43760821734916
C         7.92271538518729    9.01517753875335    4.50132828751650
H         8.74002304236559    8.87547471579330    5.19238499232617
C         6.48972960886739   10.55274084528171    3.24818739914835
C         7.62050316521708   10.33341835021157    4.06561927542959
C         8.37677721721299   11.46668117774492    4.45819243666207
C         7.93759551398014   12.71029211868731    4.06077687116146
H         8.48796612235147   13.59536020859457    4.34273058969673
C         6.79228853937987   12.83573886746025    3.26041092856380
N         6.10827243307355   11.78211336978094    2.86553783749699
C         2.70428715419688    8.95016001779779    0.77364237228462
H         1.81598636779070    8.46785976059509    1.17644873020427
H         2.86272916331257    8.57285221490964   -0.23585894888286
H         2.53759197717133   10.03170053168558    0.72425952839700
C         5.66875334813158    5.64009173287229    3.00664675056083
C         4.72256585264918    4.78409251364778    3.56272244256183
H         3.74239693590763    5.16520291484707    3.81033240009020
C         5.04124446869597    3.46346203434329    3.82007542410618
H         4.30336916035268    2.80981403621033    4.26082704523639
C         6.30150073768870    2.97907707962940    3.51134658821066
H         6.54807424782608    1.94684366607087    3.70936799603885
C         7.24338370193512    3.82084062472674    2.94335916642049
H         8.22399977667272    3.44463869572777    2.69206036976281
C         6.93251950490253    5.14503382942101    2.69475185929102
H         7.66170959125814    5.79681555304042    2.23497603126399
C         9.60609705154307   11.34355394749443    5.25728455112730
C        10.65575549783116   10.53471555587168    4.82908424333058
H        10.56569318767901    9.99289497259828    3.89834721716510
C        11.81754220396055   10.44787700678076    5.57386250347005
H        12.62826752983718    9.82241045718884    5.23061071486953
C        11.94228263847213   11.15979980229122    6.75535594883605
H        12.84798818842203   11.08593542610354    7.33826335539416
C        10.90436052482440   11.97006992961292    7.18471074832566
H        10.99876736223548   12.52886146601814    8.10386206950484
C         9.74533586069554   12.06859567682725    6.43716365538360
H         8.93185478500457   12.69428960239932    6.77490157311999
C         6.33221413673159   14.18353468517368    2.81805631122404
H         7.08055257381434   14.64167477290080    2.17283724902849
H         6.18586817176139   14.83549070372485    3.67714873167350
H         5.38956953477572   14.09934888538776    2.26614272339975
F         1.28664298736596   12.83679970693802    0.73742626787444
F         2.78131533349667   13.69516261883587   -0.56326343707218
F         2.45601984350645   14.52807807667991    1.40176036747715

