93
CSD_code = DEYNUQ | q = 0 | S = 0 | Stoichiometry = C34H56NiP2 | MND = 4
Ni        3.36041716905472    3.79103916731678    1.19824874907081
P         3.52500266252385    2.85327514787415    3.21763144453201
P         4.97103441847806    2.44053748670291    0.55068986199828
C         2.19620856243311    5.29950635626783    1.58947407472010
C         1.44399996822810    5.46975732108557    2.75242785106722
C         0.69238029033399    6.61482394176830    2.97442254485847
C         0.65429028431401    7.62313198305651    2.03062311377822
C         1.35177243614603    7.46700315110488    0.84527640903807
C         2.10149813906188    6.32441569149378    0.62696359769676
C         2.83718653783551    6.01647790420093   -0.63808579828159
C         3.02418156704262    4.49333277408033   -0.62300498910637
C         5.01308970820268    1.73707828563816    3.26269352254401
C         5.33593369456570    1.18841066926318    1.87685422217115
C         2.06166940845341    1.69330993636499    3.27944098650516
C         1.58530372624021    1.48664790164877    1.83853550237951
C         0.24797299379232    0.75851132327057    1.81067561716638
C         0.37231298796452   -0.58846801218966    2.51897122486649
C         0.87851432404337   -0.39951139061084    3.94639761971196
C         2.21944223714806    0.33554488347492    3.95802900088118
C         3.56478290045527    3.59905019589164    4.93084982593253
C         4.15242222586253    2.76092480775771    6.06390919265632
C         3.99839530389382    3.51307771627630    7.38603015552951
C         4.69963523905252    4.86690155253790    7.32434827241971
C         4.15438998799847    5.70041606087739    6.16791158456392
C         4.29845646667707    4.94020537488512    4.85419817914094
C         5.12007575032744    1.40772197587488   -0.98932106758680
C         6.32538848325044    0.47309547545297   -1.05425684664406
C         6.37074921922550   -0.20715297639044   -2.42165719100604
C         5.08518957379018   -0.99142375033105   -2.67073851419721
C         3.86733425216426   -0.07661027527690   -2.56946355367641
C         3.83148555764800    0.61510315396744   -1.20984722931481
C         6.52792955710224    3.47588494811856    0.56121598211438
C         6.26623003180990    4.60910168196586    1.55917827327580
C         7.41744952363726    5.60510203654795    1.62255083995226
C         7.70811049889810    6.17704300752545    0.24064883571149
C         8.02017344887611    5.04335859137507   -0.72880347411307
C         6.84644227839382    4.06998092010919   -0.81097786614711
H         1.42154627302917    4.69565425352113    3.51084849283001
H         0.13097677139942    6.71470423679328    3.89454686929301
H         0.07065048840039    8.51599849628629    2.20845095853659
H         1.30315435008491    8.23154189785471    0.08081684182085
H         3.80617676886600    6.52624544303903   -0.64553686724979
H         2.28720299099676    6.34552614277166   -1.52847973972615
H         2.07144289684975    4.02122939973286   -0.91898635263527
H         3.76795052549740    4.19704732484192   -1.37672289782697
H         4.86825235952590    0.92897865269816    3.98331487045724
H         5.84610005421563    2.35035578150491    3.61722407091096
H         6.37771912550608    0.85893099582407    1.82236994509588
H         4.69657378310607    0.32571412337002    1.66675560535986
H         1.28433256785593    2.25929131167316    3.81196261354264
H         1.49900526096191    2.46869964863205    1.33807347688236
H         2.32604994563223    0.89276831002075    1.29644700129559
H        -0.07486721490929    0.60839455554238    0.77837756018359
H        -0.50853303639830    1.36658718709718    2.31197740834156
H         1.07150160526535   -1.22352169946916    1.96846095767955
H        -0.59487753655965   -1.09512514830205    2.53384743825520
H         0.14618021324927    0.17751033252273    4.51610696223860
H         0.98874486322864   -1.37150469468136    4.43353875481228
H         2.95558909038975   -0.26844158502770    3.42217167106760
H         2.55736607078885    0.44740594772327    4.99006953984827
H         2.51494778845489    3.80509690887691    5.17670264064587
H         3.64736319610745    1.79647967483479    6.13905338318070
H         5.21357789585886    2.57530809438792    5.88685959499202
H         4.41578499857441    2.91442900331046    8.19925746134372
H         2.93657455090125    3.66461827574027    7.59457797114549
H         5.77234681444682    4.71153208112882    7.18376521499921
H         4.56126691618639    5.39900094483518    8.26777692186602
H         3.09925013378364    5.92220976642879    6.34231938763609
H         4.68872333693464    6.65059595695102    6.10806553231687
H         5.36018725595782    4.76647008108918    4.65879889163512
H         3.89510697315765    5.53145771443767    4.02722879872114
H         5.19292595433427    2.13579282746196   -1.80721948231645
H         6.24271925511183   -0.29568532242032   -0.28334421262382
H         7.25266365145089    1.02404868727326   -0.88354427510711
H         6.49025569159220    0.54986120861286   -3.20054133398245
H         7.23141111326885   -0.87808751479606   -2.47318490255544
H         5.00078591634120   -1.78994990486299   -1.92919435974718
H         5.11986839341901   -1.45677033054166   -3.65786408379027
H         3.91394759046128    0.67864074889809   -3.35725077180848
H         2.95341451138240   -0.65616711811352   -2.71643583817242
H         2.97420255666338    1.29123282049315   -1.15296909176760
H         3.72068947099083   -0.14368541983324   -0.43013090642016
H         7.37627884763960    2.86660759351769    0.90240558287126
H         5.33827837331634    5.12810595303705    1.25879526090697
H         6.10043878559521    4.19377591010134    2.55505873679526
H         8.31345581083081    5.10312478736387    2.00049097333788
H         7.16644574236008    6.40923510769177    2.31755057430635
H         8.54851285936192    6.87270573529604    0.28973032442532
H         6.83433057321033    6.72779788431907   -0.11356752495485
H         8.22896982870198    5.44592092985833   -1.72248889757162
H         8.91371149062123    4.51125090637600   -0.39045565286513
H         5.96837644178420    4.60532031965168   -1.17774190748751
H         7.09239764931738    3.28072975565066   -1.52387914517036

