37
CSD_code = DEYPAY | q = 0 | S = 0 | Stoichiometry = C14H20O2Ru | MND = 8
Ru        2.87531817262366    6.62029635921931    7.88270368679428
C         4.39913778289525    6.23324605495766    6.33021487888181
C         4.49469053979399    5.19947244692304    7.29977276067272
C         4.73739321580539    5.55621657820002    8.65126729284459
C         5.79915515631714    6.62380294447595    8.93610135769802
C         5.18895433243051    7.90076865777075    9.51434311055567
C         4.03193673557710    8.42571467646013    8.65783774641555
C         2.72702807947758    8.40756031246426    9.21311557870996
C         2.30540165203188    7.25080605555154    9.92194041661643
C         4.21419345593699    3.77994686435108    6.87042236412305
C         4.75007972458363    4.45751805193174    9.70320578849009
C         4.45072953183181    9.62655408199046    7.82353314942665
C         1.72965709696534    9.51560561626884    8.97758141162913
C         1.74246816294814    5.15033332022171    7.81173019911819
C         1.68422722669299    7.51195326329832    6.77041470879691
O         0.99831523801051    4.27414186906659    7.79067789231893
O         0.95027236016050    8.01508345303411    6.04225882979921
H         5.09265018941811    7.06990889118219    6.36543688780179
H         4.18974303958840    5.91735907273792    5.31062861313762
H         6.34213406141954    6.87021786632521    8.01955797013463
H         6.52951781738951    6.21786687005390    9.64232682822439
H         5.95984245797534    8.67434859227581    9.58063321716890
H         4.84481385761452    7.70275507500348   10.53315535889524
H         2.99496059482632    6.75449319501617   10.60051840699620
H         1.29001594656270    7.27008327773157   10.31154513003583
H         3.68006615763795    3.20041290304137    7.61901228599704
H         5.17553526306480    3.29106870533068    6.69745840049650
H         3.64737697765445    3.75520785633232    5.94049533457724
H         4.83672135819299    4.89079499790504   10.69847301831746
H         3.84305032767320    3.85627179929976    9.68201354905456
H         5.60609134197271    3.79436732800246    9.55352700331915
H         5.42735194551623    9.45118457887180    7.37502903365620
H         4.52819501266801   10.51888930873817    8.45004767650585
H         3.74883171954720    9.83379103317218    7.01797940097718
H         1.92246007363035   10.29674221403026    9.71635994685799
H         1.81176394123404    9.96749578359642    7.99218219432090
H         0.70881945233038    9.16112004516779    9.11439857063352

