135
CSD_code = DEYPEE | q = 0 | S = 0 | Stoichiometry = C64H60Br2Cl4N4Ni | MND = 6
Br        6.57783103294954    3.62679896925058   12.15800118939539
Ni        4.22087116801012    3.62605743280194   12.15947901193329
Cl        5.57589664557495    5.04042430665005   19.08316390053787
Cl        2.91752780196997    1.97118039745949   19.48093188319747
N         4.27088323773099    5.19791733806911   13.31253640282279
N         4.17845134208732    1.91292709747896   13.72565501357134
C         2.33893889542532    7.94505779350484   15.49879915211099
H         2.89071096513350    7.76905776116763   16.41152500941476
C         2.09607797332601    9.24160769798840   15.08150771295985
H         2.45640230670695   10.07271797293279   15.67006421357447
C         1.38521938665056    9.47460957689849   13.91535406199217
H         1.18995621064147   10.48644841486437   13.59189524405753
C         0.91834769451274    8.40314096634264   13.17235516603878
H         0.34679233377860    8.57852760681742   12.27173652552014
C         1.16513708937172    7.10516609123105   13.58852981247867
H         0.79362621699413    6.27274635859264   13.00936038185313
C         1.88122390526171    6.86483537837061   14.75343936066448
C         2.07824029737290    5.45022301511439   15.25432736469666
H         1.84272729563862    4.76278587544702   14.44124542918671
C         1.05142510331949    5.21561579200624   16.36551859579131
H         1.11065136729643    5.98837981575834   17.12872337782090
H         1.19648664414115    4.24303208287661   16.82445989783555
H         0.05451999358079    5.25018873717281   15.93192054437558
C         3.51293838062577    5.22603280906095   15.66418930476123
C         3.86829030427715    5.17637014330868   17.00513991085022
H         3.10591895986352    5.21222887967453   17.76422056584774
C         5.19232868215009    5.10242157480087   17.39829052816386
C         6.20638165789354    5.10450776958029   16.45832783691678
H         7.24206854010744    5.11177880216371   16.75631336214168
C         5.87015265679001    5.11873936771475   15.12086483908281
H         6.65630092366239    5.11592479094820   14.38269670216588
C         4.53935069907148    5.14720447473818   14.70664344898048
C         4.34149152222684    6.33558675414467   12.71669247809822
C         4.75757744601701    7.61010171380937   13.37213829464002
H         5.63112403967721    7.99718571489356   12.84561843201929
H         5.00846348363024    7.46041479859576   14.41812346740092
H         3.96589339349466    8.35222733932767   13.30384538900880
C         7.22344755045192    0.16290486798971   13.73596113154725
H         7.57420659134825    1.03696071793350   13.20776167487671
C         7.45910210789024   -1.09941151915964   13.21714059862688
H         8.00296350772735   -1.20515143369748   12.28870296291386
C         7.01753034883858   -2.22502966969683   13.89277944656402
H         7.20454246275720   -3.20967642586503   13.48961613779510
C         6.34152260225782   -2.08139641559832   15.09337378935291
H         5.99985036340210   -2.95510660345353   15.62921291562105
C         6.10837326064662   -0.82004859566108   15.61219366553005
H         5.58227104631148   -0.71371855807961   16.55046441397026
C         6.54309756937414    0.31386260079230   14.93677173240510
C         6.34713175324532    1.68745770294742   15.54079905716308
H         6.51262369752612    2.43116370102757   14.75542656987507
C         7.41622538456199    1.87888737893459   16.61830353798251
H         7.39499166489657    1.06175668877810   17.33607943525366
H         7.27405031486468    2.81845801203999   17.14303983825565
H         8.39676664391907    1.88776057235980   16.14782363088835
C         4.93064129727439    1.85188073847904   16.03382040387007
C         4.60443240435664    1.87792629352492   17.38001371412208
H         5.37766926804786    1.83527381791051   18.12840034418765
C         3.28234050613346    1.94292543994709   17.78765886597225
C         2.25256168121702    1.97342965706546   16.86462116495856
H         1.22432268570599    1.97835025633874   17.19044392527054
C         2.56230145823831    1.96516925356844   15.51866529810717
H         1.77437340961823    2.00409161950278   14.78118873305313
C         3.88755627023777    1.91238244649795   15.09718343042183
C         4.02533819728908    0.84645811726649   13.03586744747276
C         3.53482594879974   -0.46260896779687   13.56409060902597
H         2.66138848384806   -0.78083898033248   12.99583924825838
H         3.26801799956351   -0.37688370844079   14.61397729352040
H         4.30665794246846   -1.22235735930636   13.46200499183992
Cl        2.91587117708708    5.28083391396692    4.83904520939090
N         4.17904373783307    5.33972046055315   10.59381177356549
C         6.10863436731541    8.07390536444574    8.70834419349586
H         5.58198011882456    7.96844629482587    7.77027290538536
C         6.34190204314028    9.33474573125938    9.22840899569588
H         5.99981403261665   10.20908308565038    8.69388032779986
C         7.01826177006739    9.47704819568033   10.42900431555275
H         7.20539428540530   10.46117973444408   10.83339002646332
C         7.45998689145487    8.35072460741510   11.10340170690325
H         8.00400060123379    8.45547529623379   12.03186511199472
C         7.22416328985266    7.08895782179195   10.58332013069556
H         7.57521602294219    6.21442270826914   11.11050740437997
C         6.54354077778343    6.93924860002859    9.38249144687814
C         6.34725788648926    5.56598646123031    8.77777170790353
H         6.51283024062937    4.82198449861938    9.56293476547726
C         7.41587338236651    5.37438606717124    7.69975069578472
H         7.39569012607858    6.19229276264033    6.98280586834429
H         7.27227800399496    4.43551543316189    7.17407437375572
H         8.39645729099868    5.36362261373184    8.17000598719700
C         4.93063305279921    5.40164180624309    8.28517879650942
C         4.60384560036397    5.37578016721302    6.93907734659153
H         5.37668433249604    5.41962625072339    6.19035222369428
C         3.28161458946420    5.30932189677021    6.53215746974729
C         2.25229796602614    5.27732849573541    7.45560833512687
H         1.22387940762811    5.27111514921204    7.13041440509038
C         2.56262586455071    5.28586462323742    8.80145132939959
H         1.77507420091826    5.24606871883940    9.53925626515688
C         3.88802751656364    5.34009337875680    9.22227503854128
C         4.02580584004914    6.40619598006849   11.28349678169418
C         3.53524820516523    7.71519880960964   10.75506864374933
H         2.66156588024069    8.03324997196258   11.32311628976106
H         3.26858900326565    7.62937558629531    9.70511426958333
H         4.30680549170176    8.47523618101837   10.85720814941546
Cl        5.57587249275428    2.20928944450916    5.23613339706085
N         4.27001074474707    2.05474354157406   11.00674801250419
C         1.16569766755097    0.14749236993102   10.73089110738404
H         0.79433355037148    0.97968325087456   11.31053322800627
C         0.91900808529864   -1.15074543245201   11.14628233120946
H         0.34783086995154   -1.32669760639244   12.04703631364763
C         1.38569158343898   -2.22175456238934   10.40247128366152
H         1.19065839009117   -3.23388228123736   10.72524383298255
C         2.09642266009193   -1.98791146113251    9.23645707458645
H         2.45658725847711   -2.81855265499201    8.64714778653192
C         2.33930038243862   -0.69108629735195    8.81993939981948
H         2.89075013378626   -0.51466595825304    7.90708732311476
C         1.88150907405337    0.38859880495494    9.56597426845720
C         2.07780573662161    1.80342451826362    9.06539335093784
H         1.84244832986410    2.49062209240312    9.87867892321492
C         1.05052511550211    2.03770721260232    7.95467299021319
H         1.10978848318404    1.26511237180053    7.19134835074536
H         1.19481008368485    3.01036739542800    7.49579557507464
H         0.05381140561670    2.00256922197928    8.38872390260945
C         3.51242372536972    2.02739920815158    8.65519951997299
C         3.86774238812895    2.07649600729719    7.31421791887024
H         3.10525933709688    2.04147769370039    6.55520713201509
C         5.19188306458199    2.14863025559612    6.92114358631701
C         6.20602052241435    2.14553703268535    7.86103082082559
H         7.24162355792237    2.13674102154425    7.56276479236927
C         5.86979483016007    2.13205560069731    9.19850985378184
H         6.65583391645035    2.13383587665347    9.93683134729199
C         4.53892913008441    2.10527509383867    9.61269978724974
C         4.34142984805908    0.91718881962361   11.60279622619246
C         4.75981850747752   -0.35698681260701   10.94800417063338
H         5.63344159424323   -0.74241904631206   11.47567944531041
H         5.01164180492711   -0.20730076403787    9.90225568832225
H         3.96914352298459   -1.10022418835588   11.01575102227312
Br        1.91160918543743    3.62666050719364   12.15992812547884

