78
CSD_code = DEYRII | q = 0 | S = 0 | Stoichiometry = C35H35IrN2P2SSe2 | MND = 8
Ir       10.44559628334465    4.41575435433651    1.25301109756008
Se        7.89583458587784    4.49456056737141    1.60882742782728
P         7.66176822253437    5.60500199447478    3.46104432734408
N         8.16961971476396    7.14181974461862    3.47520980538256
C         8.40927463569453    4.67164360156630    4.82932236421732
C         9.40522114778270    5.23388426390472    5.61115611393769
H         9.72341541864249    6.25266531686012    5.42408857334350
Se       11.27324707462907    6.37568532148664    2.66996532797296
P         9.53703653932304    7.68866464553212    2.81738187477754
C         9.99119289228743    4.47774349104559    6.60990184746093
H        10.78082427954319    4.90299208552109    7.21155953826981
C         9.57511956773947    3.17447719370930    6.82547333301971
H        10.04352622575066    2.58240238823506    7.59790794878715
C         8.57026381713467    2.61964947767485    6.04747604207550
H         8.25682441205164    1.59945821169183    6.21028701560193
C         7.98547377996251    3.36634145325052    5.04378972612765
H         7.22468626586319    2.93925901549005    4.40359407336179
C         5.90165140370402    5.71422246404502    3.87086878586696
C         4.96966260792535    4.84393457820964    3.32723664831246
H         5.28769451801402    4.10241648576670    2.60504362027864
C         3.64120092511590    4.94261593138113    3.70143322152122
H         2.91193936339217    4.26750181361521    3.27892330966569
C         3.24919162860153    5.90651446957297    4.61574562716313
H         2.21168514867369    5.98161516676394    4.90673262820245
C         4.18310692161970    6.77660917958866    5.15678398163058
H         3.87319484437272    7.52878583648299    5.86732237996829
C         5.51203085484897    6.68084392907850    4.78878012995326
H         6.25625035285102    7.35092417355361    5.19371285786159
C         9.18444093130460    8.36808983508005    1.16319572443809
C         8.01217071382294    8.04996825715262    0.49684860126677
H         7.28252616098205    7.41066910236202    0.97689038236966
C         7.79001711025031    8.55380240798780   -0.77303179598965
H         6.88101718645702    8.30276364408439   -1.29952499231401
C         8.73307536208868    9.37728094264024   -1.36651973950166
H         8.55777619313531    9.77022207369419   -2.35751472198027
C        10.13424972064891    9.18945889348536    0.56941334322618
H        11.04691061126797    9.41485141856027    1.10601516888472
C         9.96687685280071    9.13969106114581    3.81544256381809
C         8.94069280002205   10.03760309874330    4.08173583549818
H         7.95389226538779    9.83905390397072    3.68795114003600
C         9.19532308370995   11.15745116953952    4.85058224920001
H         8.40172788610477   11.85875157368165    5.06277988841330
C        10.47014872095180   11.37976192883931    5.34900064212941
H        10.66743847907192   12.25556423524936    5.94952557147219
C        11.49044067213175   10.48152188691700    5.08313925392330
H        12.48128103294233   10.65522862293730    5.47600676462603
C        11.24031169494370    9.35746056021680    4.31512406278977
H        12.02466802199547    8.64098542788508    4.10348168685467
C        11.55019782351236    2.94979147257391   -0.07427519777581
C        10.24886417085124    3.21609422246503   -0.59233590445547
C         9.90413295000295    9.69792475387210   -0.69482345468018
H        10.63718179304156   10.34009678456136   -1.16104875378365
C        10.19623577392090    4.61298612600134   -0.97939443641973
C        11.42748557032654    5.20672675229053   -0.62703353388286
C        12.25035464780898    4.19293835917325   -0.00161381959182
C        12.10889345854871    1.60227601725825    0.23174126207003
H        11.32243317321210    0.91007701735027    0.52253214577279
H        12.84165032821989    1.64944577340387    1.03433310002370
H        12.60142126686171    1.20954348271782   -0.65994139641703
C         9.21332928241518    2.19326863950893   -0.91667625684172
H         8.23303196833307    2.65742392534976   -1.01271391312889
H         9.15511497298029    1.44007413889742   -0.13149510683811
H         9.46078593850136    1.69554987394251   -1.85563275022300
C         9.09090196074217    5.22626156962117   -1.77276538005065
H         8.12083460381129    4.98162660316257   -1.33833315389404
H         9.11334527383440    4.83593645130133   -2.79126884504671
H         9.18439642222690    6.30881666262707   -1.80979361407492
C        11.91379540862786    6.57385521293540   -0.97231616198803
H        11.09932753082502    7.21553767867656   -1.29826525685354
H        12.64764730293582    6.50315718830396   -1.77697594552298
H        12.39980010279607    7.04043207979147   -0.11588848990367
C        13.68372236353748    4.38702518214134    0.36798546702406
H        13.81646711613144    5.32457520600271    0.90755692801816
H        14.29821910670403    4.42107140401531   -0.53343073907337
H        14.03744059958486    3.57519345908882    0.99793045618178
S        10.77774651589449    2.97811540509796    3.18584721906112
C         9.84783887769237    1.73862898920811    2.62842284583741
N         9.22268476420278    0.84498237025139    2.24925142984311

