83
CSD_code = DEYTEJ | q = 0 | S = 0 | Stoichiometry = C43H33IrN4O2 | MND = 6
Ir       11.72678854604251    4.58040862725970    4.14762561254236
O        12.48872803883710    2.89913457350408    2.89241449919732
N        10.30748641605010    4.50538777222692    2.73747539114710
N         9.21815157904725    3.39029022799640    0.44476992969027
C        11.72226980081794    1.03255398159638    4.14364862541432
H        11.71923748507870   -0.04713295535316    4.14167615627693
C        12.37969414302084    1.66480193911897    3.08513755002759
C        13.04552185351705    0.75791525892469    2.06618778614086
H        13.36832623886317    1.34325530371030    1.20847753314952
H        12.36047008695455   -0.02117275792618    1.74097209054707
H        13.91686363616346    0.28720165204212    2.51983897994965
C         9.19423442432061    3.72561010604676    2.83540889483789
C         8.57140845054640    3.49988562674937    4.05440634339639
H         8.94503089364315    3.99335489408650    4.93861682220484
C         7.46829813051568    2.65039004648145    4.14500073165617
C         6.84232457487331    2.38091390474304    5.38705003581993
H         7.24022679941818    2.85592901440617    6.27182759653394
C         5.77796295503346    1.53408797093155    5.46358650090942
H         5.31082505534908    1.32629919637613    6.41511385618358
C         5.27127085802832    0.91730584818654    4.30096797498596
H         4.42552526809713    0.25066894903063    4.38534690997563
C         5.83922794194253    1.15984829194857    3.08655916371261
H         5.45407400113213    0.69154677380755    2.19227810901984
C         6.95202437439534    2.02855180637105    2.96506452826152
C         7.54467597845743    2.30505653510459    1.73296416973761
H         7.14707504465926    1.87981738473434    0.82425705152989
C         8.64492132692103    3.14565660329167    1.64549179915889
C        10.18845293672621    4.25301194394307    0.36293236080125
C        10.73991964761893    4.88288511722818    1.52922123980003
C        10.76368124626144    4.43134568211047   -1.00607441033114
H        11.84954431204443    4.46360459756447   -0.97230292465962
H        10.39277807016713    5.34903945310055   -1.46037010492269
H        10.43683918334025    3.59634307814888   -1.62118958732020
C        11.82864503509386    5.84856573922073    1.58918042732126
C        12.43528949146960    5.94299262840676    2.86427731005834
C        13.47471656264617    6.85006225789931    3.03402299297492
H        13.96189337256022    6.93367181884028    3.99564981850072
C        13.88676468886148    7.66676878600215    1.99481385041498
H        14.69213787485267    8.37083108653055    2.14851240054344
C        13.25528959700956    7.59845793868474    0.76186199748529
H        13.56056169241049    8.25562079906126   -0.03942137811144
C        12.23063501355282    6.69710682259385    0.55596160000538
H        11.73086991325443    6.68613238113691   -0.39794609539399
O        10.96607803648676    2.89865929282753    5.40190615277737
C        11.06852389572664    1.66446394830835    5.20460069048879
C        10.39830860189199    0.75738553956375    6.22051439763947
H        10.07346634781566    1.34230335977651    7.07773804511146
H        11.08154323867956   -0.02267091440454    6.54730564110205
H         9.52803165355514    0.28788273999971    5.76362033780143
N        13.14644242897847    4.50825435693342    5.55684202756754
N        14.23877062269821    3.39468444576988    7.84861761058848
C        14.25964338620721    3.72854617775507    5.45781437239327
C        14.88133305526094    3.50303096950809    4.23822880115695
H        14.50787757780426    3.99778189300438    3.35469156398038
C        15.98323662874447    2.65214647268417    4.14626546744537
C        16.60800664875958    2.38288899968567    2.90357888707759
H        16.21002373350624    2.85907374651247    2.01945585053168
C        17.67110038126548    1.53460387902739    2.82562746854663
H        18.13723496664467    1.32683796040550    1.87360458332466
C        18.17762736477499    0.91613692364060    3.98742753619410
H        19.02243524183948    0.24841760737445    3.90197572828465
C        17.61078621972585    1.15845007375440    5.20240680107430
H        17.99578258144204    0.68865601551191    6.09598988600933
C        16.49932133263835    2.02866005329641    5.32539120899266
C        15.90819359761211    2.30546780658912    6.55819422839873
H        16.30610722719509    1.87922937651133    7.46628502554382
C        14.80951781983504    3.14796893950648    6.64711017175186
C        13.26998613067995    4.25900257924496    7.93140512202856
C        12.71591661149389    4.88701708591554    6.76532080297248
C        12.69898999334663    4.44116520377265    9.30164570687745
H        11.61284476992733    4.46845500153546    9.27144467742834
H        13.06715268726144    5.36264013707442    9.75040183559117
H        13.03154614962518    3.61039815634467    9.91937323506730
C        11.62535644736344    5.85074362584635    6.70564914671118
C        11.01633117974612    5.94169267036077    5.43140385959939
C         9.97365112357184    6.84512226406151    5.26223699570057
H         9.48409681371929    6.92538092184095    4.30151293372664
C         9.56115302376744    7.66235807888703    6.30086190504596
H         8.75313976908903    8.36349633404971    6.14761575089654
C        10.19554618550809    7.59830744905084    7.53255314249372
H         9.89026944594637    8.25630885682215    8.33315936210142
C        11.22304525428848    6.70009077953721    7.73807152311120
H        11.72461928598941    6.69225448623926    8.69105737768971

