32
CSD_code = DEYZOW | q = 0 | S = 0 | Stoichiometry = C15H13IO2W | MND = 9
W        12.83325749017246    3.83390166635003    3.37081837501745
I        12.92396914617408    1.47988007474560    4.86785759326400
C        11.48613527786138    4.35685241654721    1.82090355357423
C        10.03139735463759    4.31565056953320    1.77139516784796
C         9.32353423826625    5.31029473778188    1.08332784015335
C         7.94487995505195    5.31350431646747    1.05555045965008
C         7.21429060790792    4.31006952256942    1.68206984667349
C         7.91243145675520    3.30014398080969    2.34248384733368
C         9.28790515654995    3.29774306580662    2.39304374796936
C         5.72013010384004    4.28808472795972    1.63177534164022
C        14.27071740444483    5.54947405417562    4.14382845337193
C        14.07643792450515    5.67176909304586    2.73852325359916
C        14.66024345906247    4.53408819500353    2.10981111742339
C        15.15094520366188    3.69291717514360    3.11902090685144
C        14.91043682253926    4.32251935862492    4.37868498541416
C        11.18622329638861    4.16706155079443    4.43208377351711
C        12.02976979995473    2.84716086052108    1.82850219088182
O        10.27681571505757    4.47274896139440    5.06844700740729
O        11.98715529294095    2.10067358104113    0.90862871123218
H        11.88057663580045    4.97480713533489    0.99560668879644
H         9.86962968955975    6.09996334860788    0.58608638080108
H         7.42616428194631    6.10443229757534    0.53299145008465
H         7.36231301808069    2.50357586575374    2.82124052917660
H         9.80134165330515    2.48991214141752    2.90095641521559
H         5.32562495829331    5.23580480241722    1.27454132282365
H         5.30748476976034    4.08038425241273    2.61713950347064
H         5.38223794228241    3.49951887705243    0.95895402638825
H        14.07059155926506    6.31928098067092    4.87866355479618
H        13.75264386978918    6.57277275736847    2.23144706749898
H        14.80598859828174    4.40551989283530    1.04388830346959
H        15.74759031387484    2.79947235167591    2.97322452131836
H        15.29453700399067    3.97611738856218    5.33050406333488

