94
CSD_code = DEZDOE | q = 0 | S = 0 | Stoichiometry = C39H49N3OSiZn | MND = 4
Zn        5.92034678712466    4.06030986245112   13.43910437833325
Si        7.60889560913061    6.42327436509313   14.72905626847747
O         6.36603090828485    5.46729950329987   14.51546412151745
N         6.31367593744631    2.25921065458620   14.01734514936348
N         6.74096041691438    3.97892117021617   11.73106290784682
N         4.32411942630328    5.03770398374416   12.32800987283213
C         7.89207358012502    0.39178460699661   14.10582288257895
H         8.66855683986626    0.67152285561646   14.81721981208807
H         8.33463927139133   -0.26520455632142   13.36163935471422
H         7.11829840138920   -0.14504714988821   14.64840211612456
C         7.35069517533857    1.64689176077566   13.46655175761467
C         8.00938745095159    2.06989130161403   12.31211621093609
H         8.84971292572121    1.45975083215231   12.01472517483890
C         7.70620497126629    3.13353972829992   11.45719371796661
C         8.49245207319798    3.27190616845273   10.18202935261276
H         7.83640302224934    3.15010003910383    9.32029521955988
H         9.28401178190299    2.53113351900960   10.12592559873233
H         8.93246232161361    4.26681049900999   10.12557942602043
C         6.28694321800827    4.96832526729793   10.79154720544690
H         5.87561998534507    4.47715240870920    9.89745029099465
H         7.09791538909328    5.63158769588634   10.46379308918656
C         5.21726652611982    5.82902825296768   11.47500147459080
H         5.73003378580190    6.54342002818790   12.11982415828877
H         4.64361480368676    6.38011052388930   10.71634710894942
C         3.53288528108911    5.93508409508873   13.16593066118715
H         2.86466374929598    5.34782403088508   13.79392318655344
H         2.93531875666228    6.62539745748589   12.55739941990070
H         4.20091072870755    6.50377047708080   13.80859575734665
C         3.43328993892922    4.21988372333617   11.51209271724744
H         4.01429304439597    3.51838761588588   10.91855321323819
H         2.83027717810176    4.84258601582647   10.83840616955178
H         2.76559356164697    3.65287734039874   12.15743926125229
C         5.61176671711988    1.63898902333651   15.08523190161889
C         4.46796682899087    0.88683230414462   14.77756410801851
C         3.77585564474513    0.26311889325527   15.80542927364198
H         2.90956566668475   -0.33958890073131   15.57995136618758
C         4.18356009766997    0.39798691528415   17.11869879271896
H         3.63649329592853   -0.09547608540633   17.90867001602271
C         5.28749333313678    1.17226094433234   17.41638966007387
H         5.59108653327964    1.28777159921220   18.44558020401571
C         6.02032695188812    1.79618856125213   16.41577620745167
C         7.20743455650412    2.65363339516523   16.78076805196790
H         7.70735696026822    2.97266046594075   15.86319757452052
C         8.22107290362867    1.89505686408049   17.64010349086273
H         9.13147848444764    2.48332039088604   17.73178951018561
H         8.47218117057501    0.93541430414243   17.19271686775553
H         7.83134662738009    1.71273950405675   18.63874032854027
C         6.73173198004161    3.91557580569651   17.50277047434466
H         6.08686415476959    4.49226722642048   16.84592618000664
H         7.58566004384581    4.53530343578319   17.76565200377888
H         6.18472654634793    3.66552622175008   18.40936198512204
C         4.00636922476493    0.74021455032800   13.34453454372303
H         4.47694692956975    1.53733230170155   12.75715912744553
C         4.46035887398190   -0.60468480576463   12.77071822325215
H         5.54530867629595   -0.66462680752226   12.75363973538963
H         4.09355833293540   -0.72372063867884   11.75307959329561
H         4.07717136398986   -1.42459584411599   13.37522716530371
C         2.48891090606319    0.88648801069163   13.21282981173274
H         1.97284619268750    0.01604281093920   13.60992355503736
H         2.21386010308326    0.98589498480141   12.16435640046866
H         2.14178090844328    1.76571172468290   13.75178480719433
C         9.13132226656487    5.49148117980464   15.38357615608597
C         9.52317108194289    4.30848808301396   14.76556028517214
H         8.96161413101079    3.95307914933587   13.91080357875915
C        10.60264725257314    3.57601857321281   15.22612666081998
H        10.88682708858883    2.65850596419810   14.72835802659143
C        11.31673928156045    4.01780764273164   16.32722556311034
H        12.15956996989244    3.44832430218431   16.69397869617631
C        10.94190566600425    5.19220448348214   16.95764836684547
H        11.49342026916393    5.54054057187123   17.82033757574532
C         9.86084893532988    5.91733531802171   16.48719318175825
H         9.57142908725318    6.83032356896798   16.98894935181358
C         7.16629886256746    7.82644724202796   15.91932071384301
C         6.02382657976304    7.78311837929409   16.70660369234332
H         5.37113599702850    6.92667450837317   16.62500235241925
C         5.71401577940626    8.81011206569758   17.58060091145871
H         4.81904399927034    8.75706074381747   18.18559642710313
C         6.55216001265811    9.90726437307652   17.68198974391835
H         6.31593006268372   10.71186534603278   18.36445579481179
C         7.69538928216919    9.96945472673847   16.90249889373284
H         8.35300761153452   10.82499793699632   16.97601198027122
C         7.99381830404581    8.93765656933526   16.03115071267143
H         8.88451549637092    8.99445435383520   15.42010048326919
C         8.11447802251094    7.25259916418533   13.07985497276905
C         7.44033551189306    8.38346641688335   12.62803903211821
H         6.68180702053547    8.82697141562222   13.25952466537022
C         7.72519959859589    8.95443200820019   11.40005530744139
H         7.18768948739790    9.83382589104330   11.07232071814530
C         8.70310922079111    8.40064546111619   10.59107985117018
H         8.93060973245570    8.84210485745700    9.63078412136105
C         9.39316916196666    7.28145016291237   11.02564968680842
H        10.16728229668406    6.85112906011672   10.40332823914469
C         9.09752957654447    6.71766448159463   12.25529678389731
H         9.64722049707611    5.84852476601091   12.58715947747469

