103
CSD_code = DEZDAQ | q = 0 | S = 0 | Stoichiometry = C41H58N2OTi | MND = 12
Ti        1.82525793110398    6.85076957534508    3.51787637495304
O         3.06592364253362    3.53662902480384    3.77024562910876
N         1.44665083850272    5.07280091156121    3.07767993521672
N         3.31419981676454    5.83046008712771    3.97670553100145
C         3.32281267385645    6.88253847535857    0.83982456218259
C         3.81217558961364    7.81923655233220    1.76450474301357
H         4.84959240338184    8.00690267566744    1.99362072924969
C         2.73893942040314    8.55758775905450    2.29410399401142
H         2.84634404426292    9.50157985830914    2.82086846838167
C         1.54224694696072    8.07360037733382    1.66747732650567
H         0.59820741301390    8.60950334477878    1.60866519920712
C         1.93183004069056    7.04526159247205    0.77958187878726
H         1.26190740837032    6.53997620433306    0.10030088643023
C         4.13557808326442    5.85873440736572    0.08750136359557
H         4.19969015245556    4.96316213400674    0.72565550509340
C         3.49120991687030    5.44568785652837   -1.24584499229364
H         2.46928168046833    5.09603554568614   -1.06931165922964
C         4.29063292510430    4.30229436082289   -1.86980954663169
H         4.30317374850560    3.44571082234054   -1.19154033054835
H         3.81436081855657    3.98500814677390   -2.80102447965994
C         5.71758996110717    4.76801109424073   -2.14822287746416
H         6.29170428092795    3.94743764276558   -2.59425326149039
C         6.36880383090265    5.19408792467680   -0.83486005835819
H         7.39542018743260    5.52179539776660   -1.01771148638400
H         6.40517269431769    4.34778699036563   -0.14457176603261
C         5.56619548048678    6.33599756064388   -0.21269746917349
H         6.05927581945982    6.63850319244488    0.71591755381261
C         3.46036316909771    6.63135309473132   -2.20900748433584
H         2.97338365375915    6.33637226079576   -3.14207574316846
H         2.88660850701965    7.44987443411751   -1.76972407745343
C         5.68886837103853    5.95356026288075   -3.11203312128231
H         5.23287854928428    5.65230081565655   -4.05833204281199
H         6.70825036923206    6.28596502884279   -3.32310719223777
C         5.53536378545773    7.52285592192184   -1.17414610175568
H         4.96516245832961    8.34157780163926   -0.73028398236359
H         6.55337743281358    7.87647852416034   -1.35693038742898
C         4.88747751853931    7.09594142134094   -2.48902724264744
H         4.86689705019179    7.94645718179667   -3.18060279469052
C         1.21013518334375    6.91671507375015    5.76460153721044
C         0.03996006962211    6.65617764526670    4.99910701059201
H        -0.59688413697382    5.78889371664268    5.09230329011203
C        -0.26029319569980    7.79544765721426    4.22664066933047
H        -1.15677481456021    7.93977381215646    3.63549571652764
C         0.71510512106841    8.76940873231875    4.50151796433920
H         0.69748182944593    9.79604412818003    4.15697159825431
C         1.62988713947118    8.23049099455465    5.42640802182522
H         2.42401436480073    8.79381453000217    5.89988879941424
C         1.79708717355593    6.03194092972181    6.84407164376928
H         2.68248011201000    5.52804316092576    6.43436701832532
C         2.24380427821679    6.83403898392121    8.08033660239745
H         2.92018918960530    7.64053800783104    7.77736293363527
C         2.99057779025390    5.90528681356242    9.03743349507183
H         3.86687905761679    5.48430207934323    8.53838179807480
H         3.33933613067479    6.47198522559797    9.90426400006859
C         2.05915015135692    4.78327959738213    9.49041779438968
H         2.59615645316970    4.11383835903491   10.17187258383580
C         1.58279608063701    3.99630155864265    8.27094552332061
H         0.92045281868070    3.18735430990384    8.58785189041290
H         2.43493723847217    3.54621224716564    7.75660964837763
C         0.83613077411047    4.92801579606057    7.31496154688927
H         0.51105065819226    4.34322800278335    6.44795579604900
C         1.03063958502810    7.43524415394748    8.78779601899304
H         1.36055727224535    8.02886859078541    9.64381358917250
H         0.49494561772892    8.09732353194571    8.10328703677895
C         0.85469654043354    5.38692927752183   10.21142705467380
H         0.18930422340881    4.59142468858200   10.55464239215542
H         1.18774219052629    5.94607089214731   11.08903856173948
C        -0.37130432857946    5.52463159797240    8.03873370204712
H        -0.92747153110339    6.18882370076638    7.37487509536945
H        -1.04259120567296    4.72194979702746    8.35388099938323
C         0.10492704572633    6.31418317304313    9.25621357559664
H        -0.76009724919547    6.74693138303711    9.77183621653648
C         0.51358378003973    4.09676915304285    2.53622141240905
C        -0.72960663637470    4.84156626240731    2.02613258502924
H        -1.29292643832812    5.26713944221304    2.85514623531213
H        -1.37719298592262    4.15052030041701    1.49079888147000
H        -0.43833675070395    5.64573092535253    1.35085143926598
C         1.18522052943754    3.35018707249393    1.37194945991513
H         1.50940535545939    4.05972930828522    0.61455702772156
H         0.49526443902681    2.63770227076586    0.92617986835395
H         2.05583399356003    2.81753488749134    1.74515656530516
C         0.09711821583310    3.07604854771875    3.60901942490184
H         0.98475985169365    2.59276005840137    4.00835317656712
H        -0.55322531007980    2.32236610204876    3.17167617949972
H        -0.43551530127035    3.56468641925724    4.42294665883445
C         2.65033166688171    4.67812795210114    3.60934273931377
C         4.62119938653641    5.68759053321684    4.58135011531914
H         4.56459738700832    4.91527097410831    5.37038429401513
C         5.65076564020910    5.20385590831002    3.54819653437246
H         5.32547959880043    4.23290264519763    3.17254648444526
H         5.66374494813812    5.90793352894935    2.71596738487132
C         7.04037921595478    5.09743139479548    4.16500556363961
H         7.03074945227585    4.34433027241221    4.95611188055441
H         7.75355442609426    4.77384716277550    3.40404900249234
C         7.47160136113721    6.43897735805837    4.74864566318296
H         8.46324516055262    6.35153346360819    5.19762021131095
H         7.53013892103880    7.18181122212103    3.94964396622848
C         6.46555302495475    6.90027573214219    5.79790795835919
H         6.44531760518636    6.17811210968096    6.61781605058088
H         6.76971708939006    7.86503144005474    6.21071760793773
C         5.06778100302841    7.01672339868232    5.19494976815863
H         4.35894285436411    7.31447516864818    5.97106041056581
H         5.06120227439408    7.78158057370305    4.41157274229389

