52
CSD_code = DEZHAT | q = 0 | S = 0 | Stoichiometry = C24H19Cl2IrN4O2 | MND = 6
Ir        1.49067652590467    1.92452538887344    5.45513745960271
Cl        1.14327582573985    4.23788597932663    5.14572844199770
Cl        1.76034603861705   -0.37191019827569    5.91673419613837
O         1.44542812552661    1.56266247283112    2.66743847546486
N         0.70173071792246    1.62352574693485    3.69143513379287
N        -0.48617556751795    1.69470719438918    5.96052252480154
C        -0.60518277986014    1.62810495456438    3.61015576969505
C        -1.31057268441686    1.60159944017341    2.31650218769539
C        -2.28471236402472    2.55759358861236    2.03811342509880
H        -2.50681354235633    3.32125274732999    2.76926397151079
C        -2.93640987023297    2.54837556208145    0.81902620662659
H        -3.68677253137481    3.29591448387207    0.60694074797208
C        -2.62286641514686    1.58988890422155   -0.13082153155680
H        -3.13329682989267    1.58563579531452   -1.08258464831631
C        -1.64717536178940    0.64496341179191    0.13837032347254
H        -1.39502436390584   -0.09831169966616   -0.60321843279345
C        -0.98884058850008    0.64969496750750    1.35448016859329
H        -0.22560141508216   -0.08347119545614    1.56346310338339
C        -1.28911761307604    1.61905260187425    4.87522653922520
C        -2.67161848695696    1.44675381656418    5.00954002860159
H        -3.28111583787634    1.38065056647345    4.12297432226134
C        -3.22166147024298    1.34074801703557    6.26743858009503
H        -4.28568494251826    1.21112506095961    6.39265273276693
C        -2.37722773130623    1.37323613852233    7.37191798510067
H        -2.76051179096882    1.25900382341527    8.37261127032250
C        -1.02245068280218    1.54250339912958    7.16522217906243
H        -0.33927207212502    1.52746775041919    8.00100095283390
O         3.76626118121044    1.71562419239125    3.62835620700679
H         2.89050501703730    1.62876775694741    3.06796229400958
N         3.38688285546239    1.97259678305891    4.88146061377598
N         2.50817310505465    2.45675244772966    7.27481314271698
C         4.31023371159137    2.08057916398766    5.78487633047042
C         5.74416838862278    1.91505261599001    5.48763260695926
C         6.35291120695808    2.66841393078034    4.48888987995106
H         5.77295405960814    3.38948219549367    3.93437639502519
C         7.69784499203941    2.49620893493031    4.21777701010244
H         8.16686772775210    3.08632094799075    3.44498224560060
C         8.43991807457557    1.56791061625259    4.92883621006674
H         9.48868752683112    1.43207270235677    4.71073791793745
C         7.83391441767320    0.80716582799423    5.91540998031136
H         8.40734289477714    0.07457334092038    6.46374699944217
C         6.49190313103753    0.97981066084326    6.19922422281290
H         6.01035440852444    0.37340092467608    6.95244272247816
C         3.84444439864251    2.41692583531968    7.11718867152307
C         4.71416122961075    2.76638736657619    8.15218411262741
H         5.77882235919270    2.73036712013697    7.98608941397150
C         4.19177643089651    3.17210871158180    9.36373983841274
H         4.84425358455171    3.44251877269988   10.17978062609399
C         2.81300045067695    3.25135566909166    9.50016003378248
H         2.35995310023239    3.59311680325283   10.41653854044670
C         2.01817298770716    2.89038038823715    8.42631391954537
H         0.94434046799710    2.97912757194529    8.49390795148096

