53
CSD_code = DEZJEA | q = 0 | S = 0 | Stoichiometry = C26H22Cl2P2Pt | MND = 4
Pt        7.32833311101908    4.55053603694193    4.22618503726032
Cl        7.50615241973542    2.89248713636996    2.65990764903796
Cl        7.60805210977911    6.21967168514338    2.68650553503382
P         7.01762898587481    2.98546050426898    5.82560909514230
P         7.12278481805697    6.10509023373514    5.85227157761605
C         6.75995189266931    3.87664243289753    7.39428876247253
H         6.53975905073062    3.29099282134052    8.28112950383660
C         6.80335003622021    5.20647845785950    7.40528897549973
H         6.62145851330057    5.79063145940027    8.30176589277929
C         8.28224361977456    1.75436687165227    6.21112311292873
C         9.19701778261313    1.93952442514898    7.24249027766046
H         9.12646853019436    2.81496089500365    7.87425145437531
C        10.19417050976390    1.00360154524494    7.45022139056860
H        10.90220895154713    1.14182773684435    8.25435984826373
C        10.29055736148695   -0.10430049838026    6.62383580979897
H        11.07349151819575   -0.82987271570717    6.78741177764773
C         9.39375716079923   -0.27674976725830    5.58026792160686
H         9.48176211366126   -1.13247404827082    4.92779770861048
C         8.39175068127436    0.65060692029991    5.36810881537990
H         7.69816529170302    0.54460317963184    4.54526413661809
C         5.48597660323145    2.02588346191903    5.69390138233511
C         4.55567303821914    2.42368012861541    4.74125795062586
H         4.79767927423533    3.25851000518827    4.08971681862566
C         3.36274134448879    1.73632929613073    4.61377712009320
H         2.64254419119332    2.03616378777359    3.86750569413936
C         3.09819879758006    0.65619430023686    5.44062498548432
H         2.16907003482575    0.11508325643318    5.33963647707454
C         4.02487314349490    0.26035247819932    6.39305682704320
H         3.81555812557665   -0.58566018069780    7.03123779741566
C         5.22051548047809    0.94233501343102    6.52454442273063
H         5.95310807222939    0.63049417374222    7.25690223617442
C         5.67068377223886    7.18377740072440    5.74361410691249
C         4.71044203998918    6.88137583220178    4.78573308355176
H         4.88294905200453    6.04250622758420    4.11796682129312
C         3.57758534670418    7.66634649610327    4.67402292193478
H         2.83479831856296    7.44072606460242    3.92378489669530
C         3.40290105403617    8.74886062565470    5.52134276077907
H         2.52148877320305    9.36645624782794    5.43211491700258
C         4.35920286877824    9.04925917521560    6.47936679328565
H         4.22048431137112    9.89746811046790    7.13368151635350
C         5.49490117381556    8.26923469728546    6.59544232953033
H         6.25092682967490    8.50612310331952    7.33205000913694
C         8.47735759003904    7.22960987894242    6.25787429891834
C         8.66389489027694    8.34309344249708    5.44168155784684
H         7.97710089334635    8.51961907549175    4.62527771806242
C         9.73067138218804    9.19037259650329    5.67205743691958
H         9.87785682313551   10.05395319483474    5.04096295553833
C        10.61571273321213    8.92777187640394    6.70679248284118
H        11.44887176880495    9.59128150574047    6.88504574351563
C        10.44266428839580    7.80883216913356    7.50535231689490
H        11.14144178968986    7.59957175438409    8.30220050401645
C         9.37984913450321    6.95281146365136    7.27941377498747
H         9.24801260207939    6.06909802829462    7.88947506010148

