77
CSD_code = DEZTEI | q = 0 | S = 0 | Stoichiometry = C36H34I2N4Pd | MND = 4
Pd        9.04111015143727   12.93453637132531   19.01476662972437
I         6.95505674577989   14.53638034838743   19.06888363630480
I         9.83993216991787   13.29915602984991   21.49248377883363
N        11.86024789205400   13.33289396056917   18.55452092085899
N        11.44512578872598   11.20848823087474   18.29984053410555
N         7.08465261768106   11.24002122841233   17.73679906959053
N         8.46307416212208   11.92921467235831   16.19574079750288
C        10.88017967259581   12.41040711713236   18.52801706001199
C        13.08128124869828   12.71940985449040   18.39387044367971
C        14.37854298942593   13.20560847369765   18.38942180802658
H        14.58636407322069   14.25614689520186   18.51517211874398
C        15.39592384749024   12.28055371769422   18.24355041726528
H        16.42041558990046   12.61966214617222   18.24263464970176
C        15.13410176442889   10.91763476330578   18.11732266098859
H        15.96061073905762   10.22954065379621   18.02837803774155
C        13.84163000111498   10.42485937535583   18.11322346441750
H        13.63882288233371    9.36754796281024   18.03833151228237
C        12.81811946265895   11.34843132957977   18.23465675821722
C        11.64231423909179   14.74888570581577   18.71594594650590
H        10.55729647973127   14.95637240287507   18.64881290560692
H        12.15829088040859   15.29402794533002   17.92315294616450
H        12.00771139863964   15.08695486667279   19.68917062826452
C         8.21562181300112   11.93827654104985   17.52099369108684
C         6.55939134865549   10.81990559600443   16.53649099083786
C         5.40787792326741   10.12109495149506   16.21189821692712
H         4.72321393979446    9.78002184416511   16.97183388486636
C         5.16199787312331    9.90433923745122   14.86847457126329
H         4.27089584574774    9.37097061190920   14.57523578985846
C         6.02606209845497   10.37245388981540   13.88024154048786
H         5.78358212449862   10.19690744450395   12.84356794017149
C         7.18164188000010   11.06366809902544   14.19609229982405
H         7.84117829487185   11.44536007633257   13.43176232871065
C         7.44285132410599   11.26655747868887   15.54006799084826
C         6.53302982715696   10.96291696878111   19.03963783372870
H         7.25953245997719   11.27680491821568   19.81294181127647
H         6.34786503058336    9.89159898824962   19.14022927113595
H         5.59865802751269   11.51037522778852   19.18817409883239
C        10.70923499971973   10.08079995672582   17.84687783183872
C        10.30030336197474    9.09548704319719   18.72781297381922
H        10.52870691338557    9.18818657058688   19.77912862729300
C         9.58795168587877    8.01812460916572   18.23739484253652
H         9.23836568925653    7.25667902926359   18.91890005917606
C         9.32792377714370    7.88399437361297   16.87858922625053
C         8.53632398483629    6.69371882869229   16.41095024430536
H         8.83165032678570    5.81251676756361   16.98460397795898
H         7.48070563963148    6.88540003995322   16.63429172173122
C         8.68634586946137    6.42988412363951   14.91792234275707
H         7.96749230070955    5.67116875884669   14.60507526171979
H         9.68888505755877    6.05065667197738   14.70774622908436
C         8.46268559696490    7.72766110018518   14.15365748853275
H         8.46366333950706    7.54570005675578   13.07774530871874
H         7.49192932984414    8.14886860702450   14.42301312995182
C         9.56957170883534    8.71334746427624   14.50491592797262
H        10.51495988213833    8.33987469464542   14.09522380101870
H         9.38242050917929    9.68385019206220   14.04287144053504
C         9.75213349699837    8.87255581598146   15.98895658342290
C        10.40913523706478   10.00053952212417   16.48079158722784
C        10.70411576862567   11.20521377793693   15.65325076296704
C         9.73429201307119   12.21614532180981   15.62962271071896
C         9.99851101230975   13.44567560515630   15.05318183941562
H         9.24028707089276   14.21436682528168   15.05974048770186
C        11.24250625745094   13.66577906737645   14.49382425437607
H        11.47077736047943   14.63119335251874   14.06681880099578
C        12.20030154174645   12.65971408770088   14.44765785426450
C        13.53704751120199   12.96269159931917   13.82902171436565
H        13.39856943592959   13.61451357505876   12.96376251330727
H        14.12732297203576   13.52163497575885   14.56394066703373
C        14.30237819614280   11.70680596467487   13.43126940675745
H        15.31872354492486   11.97324002427909   13.13757740422933
H        13.81734538070454   11.23351349030975   12.57462130674810
C        14.32069417498684   10.73807313904338   14.60578823447886
H        14.73449957869786   11.23679080056426   15.48463723209000
H        14.94837433566450    9.87390737128726   14.38194871081675
C        12.89941412227376   10.27340852981561   14.89605160645459
H        12.56065780726635    9.64205111146273   14.06670671307722
H        12.87091476015398    9.65855524262620   15.79680891162885
C        11.92787384129977   11.41482598655640   15.01726127832535

