51
CSD_code = DEZWUC | q = 0 | S = 0 | Stoichiometry = C20H26Cl2N2Zn | MND = 4
Zn        4.69757160038345    2.06261413668795    0.99123959213608
Cl        4.51073574242604    0.30611168717836   -0.40464194427054
N         5.16197650043805    3.75800111926225   -0.15129827784060
C         3.13956266299212    5.87965930042218   -2.15673058057646
H         3.72496519668568    6.77697484701759   -2.00693615795024
Cl        3.18550554167590    2.74604313095190    2.43060115314757
N         6.82506179682654    1.61242786836586    1.29494907146110
C         2.25311154710270    5.80875850573154   -3.21836915440012
H         2.15884019493027    6.64581524011737   -3.89484856947248
C         1.49302094442356    4.66893981697348   -3.41229273150777
H         0.80444289181109    4.61280077333671   -4.24225395078513
C         1.61230495538204    3.60413102000263   -2.53400610540551
H         1.01561248386136    2.71578812718131   -2.67521783592731
C         2.49129409226208    3.67764029429736   -1.46962962909617
H         2.57390990098128    2.85251867454189   -0.77487301861857
C         3.26728925968422    4.81392092472406   -1.27583432345838
H         3.66579544345800    4.76821965805765    0.81910178740401
C         4.22831977305735    4.86981102940412   -0.11348886719218
H         4.75969386595311    5.82755783876902   -0.10879841486839
C         6.16996031694512    3.76358191521060   -0.92724119859784
H         6.62406211245878    5.81702657114911   -1.29586873995471
C         6.48057947444098    4.89389627109464   -1.85828858151786
H         5.63993210107369    5.05129461120234   -2.53312407591870
C         7.09687323000613    2.58871348553323   -0.91899361317495
H         7.37336761388996    4.69868510990549   -2.44355646136071
C         7.79037737790713    2.32758042054322    0.44341980644862
H         7.86442125812833    2.72399221966546   -1.67991359786567
C         8.21203557917376    3.64717706955675    1.09088042945143
H         6.51202896922795    1.69968350204681   -1.17417929997049
C         9.02555484578419    1.45602808535788    0.17817677944089
H         9.74518065649197    1.99232203971352   -0.43490145262347
C         7.19843644235745    1.37589498727848    2.69594098742995
H         8.74123181921465    0.54376349854747   -0.34232136698181
C         6.08221617954549    0.61078662472091    3.35810812748385
H         9.51950720926884    1.18740757780499    1.10871772696939
C         5.78180128377729   -0.68198998810481    2.93847668475939
H         8.89950796173183    3.47309600554013    1.91476903115944
C         4.73270577801697   -1.37729850299140    3.51117997221839
H         7.34291955284972    4.18173015474919    1.46655495824735
C         3.97876925842990   -0.79253072728108    4.51474017709244
H         8.71717247372730    4.27223550753288    0.35874995873613
C         4.28139074495651    0.48584696889646    4.94882914283452
H         6.70560727984203    0.69209600785420    0.86764004353221
C         5.32684383016112    1.18548102708784    4.37203920921955
H         8.13429192229008    0.80396337906156    2.77062649827137
H         7.32941297800002    2.33510761537551    3.19915597563299
H         6.37137078422030   -1.15271664376730    2.16324362824786
H         4.50076355541484   -2.37465198009974    3.16840470090124
H         3.15380394530737   -1.33273689588636    4.95475856501925
H         3.69291964482845    0.94887438040792    5.72617967282405
H         5.55043942625615    2.18832570922083    4.70562426926443

