34
CSD_code = DIBCAT | q = 1 | S = 0 | Stoichiometry = C13H12CuN4O4(1+) | MND = 5
Cu        5.23977088244244    0.89493396141814    2.06621569306177
O         6.18100742479152    1.55988513655444   -0.40496714487864
O         5.48840882834703    1.93062499044115    3.58572346115811
O         6.02370765061890    1.13779497525615   -2.98409942552633
N         4.97495164071427    4.16325944464645    3.18096791307410
N         4.26559812468790   -0.53780199458150    2.56655690377502
N         4.62841058808535   -0.62219352622301    1.30917822510974
N         4.92673390932867    4.07737379138856    1.92324453012652
C         5.50732466563980    2.29259766731120   -2.54639158944757
C         5.02532766086819    3.67530002683677   -0.58354856453569
C         5.57051664145669    2.50722910738991   -1.14857907904037
C         4.93053693519481    3.28639418958322   -3.33243263190075
H         4.88119066089901    3.16227182171136   -4.40170396671235
C         5.26694710233285    3.42806530548939    5.40859839098292
H         5.17757880222151    4.49787854794354    5.56548718478384
H         6.19034977258403    3.05165396333802    5.84336066204582
H         4.44068539058165    2.91278991107669    5.89594072739319
C         5.24957701823645    3.12870347931114    3.94486000662720
C         4.31167120742709   -1.81775112923459    0.81993883187114
H         4.52262980956935   -2.09801324388454   -0.19182349341909
C         4.44190598551758    4.65210663472524   -1.40403648266150
H         4.03280348475905    5.54395557340874   -0.95966994557128
C         3.68886363514031   -2.52371006127163    1.84872586479549
H         3.30127499896439   -3.52087139050111    1.80425926336700
C         5.08178350902662    3.78120326461380    0.80206694159780
C         6.07321564344371    0.88802695186014   -4.37728045370020
H         6.55618383703906   -0.08151163599485   -4.47963049821853
H         6.66630405893199    1.64526863737824   -4.89562714719206
H         5.07004406877396    0.84250478724822   -4.80930319504626
C         3.69467089122411   -1.67396762225572    2.95520746161596
H         3.32444963589437   -1.82260613392355    3.94894614574407
C         4.41111987984015    4.44455739952248   -2.76536491989362
H         3.97548926216409    5.19292424682440   -3.40790235570897
O         6.28556639325459    1.87692292259409    0.92948268632045

