157
CSD_code = DIBDAT | q = -1 | S = 0 | Stoichiometry = C60H92CoS4(1-) | MND = 4
Co        2.58587123182561   -1.89104953563656   -5.26491404316754
S         4.33205958104284   -1.18781610745906   -4.22786604043606
S         3.38645320572525   -3.84484575095945   -6.06599476761228
S         1.74230090723253    0.16082242614522   -5.62989615657619
S         0.99247425823408   -2.77694453870949   -4.13670086895407
C         4.18932493776791    0.51014192471147   -3.80330984504993
C         3.67269427324892    0.86531095372328   -2.54960741696526
C         3.64279060627547    2.20484283679790   -2.20474544134059
C         4.10383526117573    3.18951075361681   -3.06661380195796
C         4.59646108884585    2.81270818006569   -4.30584012262131
C         4.64269561015070    1.48518161884950   -4.70001038130977
C         3.16691010495696   -0.20628855580740   -1.61421967539379
C         4.34783985981948   -0.85870044753441   -0.88917200719321
C         2.14047109961878    0.29283008831983   -0.60071205148708
C         4.05583779360735    4.64796416197741   -2.67595256956775
C         2.61169562111310    5.09731930656606   -2.44310899681985
C         4.91272121735100    4.91472134688405   -1.43639700299798
C         5.16839337773703    1.07687740606956   -6.05469433113611
C         6.63956297183223    0.66791998029576   -5.94685131114881
C         4.98084709158378    2.14873326636151   -7.12495929084719
C         5.04803918947264   -3.43121741217129   -6.48229641813293
C         6.07485823797408   -3.78166502797718   -5.59367000161154
C         7.38505742489296   -3.52831573203658   -5.95769996071228
C         7.70687655346630   -2.93052980661826   -7.16747717937422
C         6.67655618289693   -2.58857088765288   -8.02829370825221
C         5.34976533419301   -2.82829097579237   -7.70989052311026
C         5.74173921140943   -4.44690600524419   -4.28105833696793
C         6.72885015325612   -4.11357604239323   -3.16558539264513
C         5.63821147504472   -5.95975315984746   -4.49332403556730
C         9.14466035881398   -2.67132029544352   -7.55228795240937
C         9.83959156423967   -1.76764440499926   -6.53201902171357
C         9.90624399324197   -3.98993846099166   -7.70986879898587
C         4.23543285704792   -2.48609261543196   -8.66761429737321
C         4.53555141554716   -1.29449906025871   -9.57134112189368
C         3.88514622965302   -3.72393029863814   -9.49748141501890
C         0.04835497952890   -0.15286121710459   -6.00165427431136
C        -0.35033711447949   -0.47857769923361   -7.30529466233041
C        -1.70048664753396   -0.61038080145064   -7.58106169625582
C        -2.66496747864698   -0.42792044044152   -6.60161098002977
C        -2.24773180540692   -0.11961677021855   -5.31609044168188
C        -0.90866961365073    0.01879060824609   -4.99211954841288
C         0.68878242880790   -0.63247609198696   -8.38827296623906
C         0.29558258924665   -1.61034362211710   -9.49141870050504
C         1.01406340211112    0.74483572256246   -8.97209359286933
C        -4.13772214332779   -0.53531643467555   -6.92212391252548
C        -4.54565846282645    0.51759441710200   -7.95574794741442
C        -4.50140386143507   -1.93863310094260   -7.41070067123100
C        -0.47630436131930    0.38890846126048   -3.59505783408696
C        -0.38016886465354    1.91317511132373   -3.48592067951797
C        -1.38212233893616   -0.18609242723387   -2.50943336306052
C         1.11341871895329   -4.52866068017895   -4.09793780489448
C         0.56292299792071   -5.28380894785826   -5.14061733726310
C         0.60370253604212   -6.66532413414419   -5.04301814145965
C         1.18088351392572   -7.30406551116309   -3.95721268863350
C         1.73325387479986   -6.53211501061998   -2.94547633514112
C         1.71454924274400   -5.14961884239983   -2.99466524713523
C        -0.06064479306981   -4.59060228765532   -6.32739740174108
C        -1.50529936477687   -4.19898954546673   -6.00814255768307
C         0.00703691501059   -5.41026105727481   -7.61274294714303
C         1.21851902545129   -8.81273365904865   -3.89040034275418
C         2.66305308070441   -9.31712518918611   -3.87392711650087
C         0.45005996398144   -9.32829830447075   -2.67154563063568
C         2.31777936504787   -4.30892808011291   -1.89516683244058
C         3.40551639462294   -5.02426362362008   -1.09803254681971
C         1.21205508722815   -3.82024238781488   -0.95460604764964
H         4.94733802424266    3.58175296539452   -4.97843133987276
H         8.17980825714490   -3.80607842326770   -5.28266094030541
H         6.92210413396661   -2.12862711271657   -8.97526121448857
H        -2.01035611651867   -0.84909925952212   -8.58740123125857
H        -2.99622549827023    0.02540000078244   -4.55032866782840
H         0.18017121255262   -7.26873688844562   -5.83249569239559
H         2.18877801701198   -7.02417008319923   -2.10039440598368
H         2.68100954028668   -0.97110653434751   -2.23240638348858
H         5.02607119969756   -1.30864362216210   -1.60911655064647
H         4.89448699366434   -0.11487512556443   -0.30998162082557
H         3.99212164990909   -1.63487257581004   -0.21414416762466
H         4.88161143114937   -0.44895271306290   -8.98161462745892
H         5.29075003172305   -1.53947818787150  -10.31684185470967
H         3.63079815222221   -0.99666281898848  -10.09871016771658
H         3.58622239104624   -4.53603549572490   -8.83890087983232
H         3.06338309177528   -3.51001277065101  -10.17914150486205
H         4.74846100630185   -4.04620150433982  -10.07914630750081
H         1.59941044308722   -1.01504190253086   -7.90708447311857
H        -0.04788470971276   -2.54867871311170   -9.06207865230891
H        -0.49047517747656   -1.20196372837673  -10.12521851565223
H         1.15761497230678   -1.81860361621617  -10.12293929793755
H         1.38051360621701    1.40024602642569   -8.18553380297353
H         1.77989595850494    0.66552617848625   -9.74197406296030
H         0.12136158758685    1.19086551233709   -9.40992949213434
H        -4.70070127614224   -0.34165460130275   -6.00091636080743
H        -4.28343157795329    1.51278689825269   -7.60243614089355
H        -4.03445173268248    0.34597443867714   -8.90003227258915
H        -5.61965020221273    0.48279795534006   -8.13478403068567
H        -4.23335240516716   -2.67819143136605   -6.65965054616717
H        -5.57116333604686   -2.01004379887995   -7.60430376783553
H        -3.97012464104461   -2.17524255400900   -8.32970043897339
H         0.52605225291781   -0.02452998462351   -3.44455977142620
H         0.36196157219074    2.28541636282105   -4.18824072774111
H        -1.34154213160301    2.37367303018602   -3.71249829818337
H        -0.08027130381312    2.20870542665591   -2.48189358873818
H        -1.52974821694309   -1.25051911369726   -2.67567554760000
H        -0.91727206462388   -0.05330847084493   -1.53453855604494
H        -2.35146533168052    0.30958588974400   -2.48928309753975
H         0.50517788479145   -3.66489955042252   -6.49675005579762
H        -1.53190247591265   -3.53881024862797   -5.14426437173158
H        -1.94437264059551   -3.67055549591350   -6.85184453365296
H        -2.10251170431519   -5.08492356386404   -5.79323346609600
H         1.02460910974566   -5.75368653817118   -7.78283559571793
H         1.36835370779476    0.87487225613505   -1.09644240936071
H         1.66843396702101   -0.55839189322081   -0.11359706989814
H         2.60741600693173    0.90503573256960    0.17016633325160
H         4.46572817774358    5.23708427889811   -3.50535826115359
H         2.00760257831907    4.88711981067484   -3.32266007332902
H         2.17667669446245    4.56779524296376   -1.59916818270886
H         2.57206130686331    6.16632249726285   -2.23755067136807
H         5.93866806677715    4.59738577029994   -1.61188159123727
H         4.91307383659241    5.97669009113527   -1.19429731914056
H         4.52850625795870    4.36711837930581   -0.57924482105546
H         4.59933263561129    0.19230217837507   -6.36794957933181
H         6.74564815836267   -0.16151390185151   -5.25147509978505
H         7.01185438630046    0.34653437197115   -6.91823138202749
H         7.24310850459193    1.50404863200376   -5.59408474080317
H         3.95084199919631    2.49740036201884   -7.12787949792722
H         5.64504020122664    2.99627459787814   -6.96310039500119
H         5.20640768097811    1.73297628416958   -8.10575680011165
H         4.75667380354366   -4.08092667787004   -3.97391437593227
H         6.88128372519750   -3.03803575211703   -3.11468765929479
H         6.33124717703669   -4.44902129325116   -2.20980814233774
H         7.68934291536429   -4.60364431258463   -3.31884215749875
H         4.84329181155986   -6.17725917906035   -5.20268358516898
H         6.57581398926916   -6.35589449099130   -4.88281498487472
H         5.40878157964969   -6.46480550893688   -3.55642239692746
H         9.15164700231695   -2.15741367789263   -8.52162465860613
H         9.28774335535116   -0.83812574567084   -6.41434362016215
H         9.89339376470613   -2.25450317470474   -5.56152819402135
H        10.85315636414980   -1.53484025970632   -6.85694497635537
H         9.41483963846346   -4.62361980372037   -8.44549371417029
H        10.92926687653430   -3.80577757481763   -8.03589359747853
H         9.93704154680353   -4.52697686817273   -6.76482435080215
H         3.35660673547139   -2.23371426197230   -8.05730496881305
H        -0.66018249326220   -6.26992369320875   -7.57535877180189
H        -0.29414459058168   -4.79329298250576   -8.45779606958885
H         0.73126808418836   -9.20657092602518   -4.79057105490656
H         3.20451334039109   -8.92904713978302   -4.73354238495736
H         3.17491333324315   -8.98610446943402   -2.97376466150180
H         2.68900893199140  -10.40569610681235   -3.90520565616867
H        -0.57606786614695   -8.96690062513125   -2.69319574362742
H         0.43584080809625  -10.41737751530860   -2.66118754302911
H         0.91376708391733   -8.98197088436608   -1.75111079781704
H         2.77260434108289   -3.43226771767906   -2.37136943475109
H         4.12070516921432   -5.49473790979720   -1.76738189030616
H         3.93707041168773   -4.30295829321022   -0.47978871521917
H         2.98267399893965   -5.78281812753548   -0.44016542511585
H         0.49380889182258   -3.21757140340184   -1.50388347476522
H         0.69111542118188   -4.66763326704183   -0.50964579717246
H         1.63744758883243   -3.21423282564741   -0.15663733746363
H         3.25142557018959    2.49294593779475   -1.24161074148696

