50
CSD_code = DIBDEA | q = 0 | S = 0 | Stoichiometry = C21H23BrN4Pt | MND = 4
Pt        3.59356703188030   11.22251070613910    0.53195979957443
Br        2.51263042899406   13.29917922433203    0.69080692592193
C         1.42182298475501    8.01678900102725   -1.06097774924600
H         1.76454420148869    7.05148399095829   -1.38828403886525
N         5.43875345926647    9.25457381228434    1.22467567985410
N         4.28909217889407    9.42650509904766    0.65135408566080
C         3.78311210598503    7.09786309243785    0.91157478873145
N         1.81072140008651   10.04282949587699    0.12940232779109
C         3.44795727067017    8.37841670172568    0.44277129703198
C         5.84073934966568    8.07088538132937    1.65623968650703
C         0.23658550931331    8.52972747543674   -1.56015196504714
H        -0.35824291881463    7.94559530800824   -2.24594371282631
C         2.79198192016221    5.97135643667301    0.82964287702986
H         1.78936960438809    6.39637580986941    0.75194715139565
H         2.81891722266396    5.39619190820981    1.75641033228200
C         6.24785168796033    4.78689804908434    1.07166034682098
H         7.21127464853808    5.27393862402204    0.91959518763297
H         6.43151188963233    3.79917203190156    1.49912087262576
C         2.18079182906438    8.78325070380446   -0.17918801180923
C         0.66925537848325   10.52622505618624   -0.34228334465729
H         0.41842526372596   11.53453433450419   -0.04008992051817
C         5.45774676757381    5.61055810130114    2.09772021667461
H         4.59426805484496    5.03899693363372    2.43604617262226
H         6.10992792737976    5.78245044323004    2.95390744225119
C        -0.16463140239964    9.79929012450911   -1.17357604109559
H        -1.08843186503342   10.22825173646755   -1.52552228631250
C         5.02519762413416    6.92680063357976    1.54124647872378
C         5.41475143460960   12.14938036508091    0.55112973648012
H         6.22147131322642   11.44469433453556    0.34699227171082
H         5.57809620369730   12.59939195453776    1.53491689053120
H         5.44438381706516   12.95262914327690   -0.19086904626328
C         7.16735907438458    8.12174000292409    2.29787695811561
N         7.90768720393115    7.01836880906680    2.34210883405824
C         3.00884775225616    5.00609107629496   -0.34840024507481
H         2.08077752388032    4.44375017031912   -0.48167779495368
H         3.18833211862391    5.57346580271207   -1.26488183981919
C         4.15221209257125    4.00478955245933   -0.18685044852141
H         4.04385073712496    3.46627135694285    0.75608453799329
H         4.04268381593097    3.26868489067800   -0.98654044552596
C         9.10340327091357    7.07768939481029    2.89665218138670
H         9.65635594523994    6.14694054030961    2.89912827864010
C         7.61618170010983    9.33797903121835    2.82003936177297
H         6.98213337501056   10.20679183233248    2.76053438699215
C         5.54929791207094    4.63322362860293   -0.27603800596261
H         6.18619901986151    4.00800577198115   -0.90505677285691
H         5.48080100544998    5.60768924423873   -0.76445085342608
C         9.63854722840677    8.23483041933250    3.44112956182033
H        10.62336005478663    8.23150211396540    3.88109832683575
C         8.87069199309687    9.38933819823738    3.39865526777059
H         9.24523585442172   10.31520215053184    3.80985425953085

