72
CSD_code = DIBDOK | q = 0 | S = 0 | Stoichiometry = C29H34BBrN4O2Pt | MND = 6
Pt        3.34264042491427    4.85326527913791   12.53280022236888
Br        3.30760315740036    6.65312193642664   14.41309368180476
N         1.15375663218866    5.35584367665435   12.49114404377100
N         2.41348605034226    3.53104882709260   13.94586636761719
N         3.09244874871286    2.52574904406273   14.36953542133462
N         3.18566288035027   -0.30719832448253   16.44968886530012
C         0.70769360193959    6.46332838916742   11.92048840905851
H         1.24649033351001    6.80023019779432   11.04525776427392
C        -0.37003375983397    7.18509897806985   12.40293103956944
H        -0.69140080385708    8.08493723729888   11.90422397374001
C        -0.98112890120660    6.74226307530086   13.56303922803990
H        -1.78731807862890    7.30084941032977   14.01374271084762
C        -0.53164001594508    5.57374337145249   14.15236310306380
H        -0.96351976290074    5.24686682132842   15.08023587226907
C         0.52416691921798    4.87337976040177   13.57437510403059
C         1.09257456138441    3.63287296573325   14.13417310749834
C         0.38221842451886    2.59121880002203   14.76463930022423
C         1.12184677248232    1.50135476797377   15.23849170110135
C         2.51518244827793    1.52890175764018   15.02561368988862
C         3.46482929869878    0.47025747769780   15.40817552411240
C         4.64510731423078    0.32826362003896   14.67330138774600
H         4.83360149927180    0.98141713545395   13.83752149355279
C         5.54579187869302   -0.65231634043287   15.04464438056277
H         6.46676502904954   -0.78609864958804   14.49611129692600
C         5.24880780232210   -1.45886578322197   16.13322950836399
H         5.92564681832030   -2.23327107444237   16.45844982095253
C         4.05221527706546   -1.23904906275058   16.79768924833366
H         3.76793623898634   -1.83502849327766   17.65574678630298
C        -1.11962674610886    2.59452700083150   14.80951991275372
H        -1.47966167639890    1.59453949050282   14.56075475481888
H        -1.48140978261187    3.26621094586632   14.02736950205224
C        -1.75102627213250    3.02087386467687   16.14728121558603
H        -1.28230931457884    3.93957567583429   16.50645864994689
H        -2.80301939167788    3.24268820192641   15.94790590818294
C        -1.68500347750534    2.00094381674758   17.28318100818404
H        -2.08629042255860    1.04239495528535   16.95005065212943
H        -2.34751834715050    2.36507517887399   18.07186021826391
C        -0.27630022700327    1.81264126673904   17.86156170779742
H         0.35071808598022    2.66070433805834   17.57858781593418
H        -0.32913822644063    1.80833666358421   18.95212070319024
C         0.39563810227303    0.51410879199554   17.42782475818753
H        -0.15609751370011   -0.33374484233594   17.83917073108685
H         1.40938872743546    0.48294053930842   17.82789823418856
C         0.47720565516051    0.33338071462036   15.90657067663275
H         1.07750119056529   -0.55491914695484   15.71357232415521
H        -0.52014494007413    0.17042626831935   15.50101781905927
C         4.05788679981984    6.16676400282316   11.11403877639812
H         3.33317211792738    6.24966800638683   10.29767837492498
H         5.01773157043986    5.88931497638472   10.67643310582148
H         4.17205210523887    7.15171854448520   11.57242506078347
C         5.30393708370329    4.41891683541352   12.97011004740272
H         5.84803719022924    3.91905443800294   12.16949987029119
H         5.25886441114844    3.76605548505028   13.84565902290322
H         5.83322791046725    5.33438251871365   13.23702842352360
C         3.31198354194424    3.33446085311483   11.06420661014150
H         3.64899605946305    3.73838900072449   10.10884928101433
H         3.98679182825702    2.53719731509727   11.38149856349924
C         1.92846002230631    2.84160583427888   10.97987475933970
C         0.95586587769205    3.52713007713129   10.24354343991686
H         1.24180280585286    4.39991018613990    9.67351429881519
C        -0.35824479578081    3.10540655571138   10.24410423974101
H        -1.10014149268231    3.65376225397128    9.67972871180190
C        -0.73247324484508    1.98267604592966   10.96322435092749
H        -1.77058573526189    1.67329163711001   10.95343760684076
C         0.21589134607513    1.23623393049266   11.66536169453670
C         1.53473590648432    1.68237245075679   11.64872829476196
H         2.27295725415534    1.09739847619703   12.17933078109149
B        -0.15315319254439   -0.07332531440513   12.46249382938798
O         0.84530019114408   -0.83750384302141   12.95821909240933
H         0.53665691508017   -1.62442567206444   13.40946344797191
O        -1.43567218045574   -0.47114170078820   12.71574709847229
H        -2.12321650879786    0.05979858164079   12.31692157251392

