55
CSD_code = DIBGOK | q = 0 | S = 0 | Stoichiometry = C27H26OTi | MND = 12
Ti       -0.02677150962263    1.67509224859205    0.02335724350738
O        -0.01050705322845    1.63848131516331    1.74159048992512
C        -0.01138751105865    0.48746616889334    2.52228214960973
C         0.03906777971228   -0.68812586758121    1.54838815758572
C        -0.03609634503102   -0.38216645948237    0.24753889900967
C        -1.31066271883986    0.40626820148859    3.34763375617463
C         1.19671531750043    0.52266884623043    3.47421878904764
C         0.05246625480666   -2.07959148477461    2.05867901774793
C        -1.09554354081162   -2.85842091148792    1.94058278643584
C        -1.10671040027309   -4.17056943105237    2.37496698545044
C         0.03255947544742   -4.72837388996854    2.93018124785218
C         1.18299183472757   -3.96687585294434    3.04143376210178
C         1.19456421276988   -2.65299630681238    2.60823975828155
C         0.06281380055283   -1.43300826474144   -0.77131985047787
C        -0.98993802775359   -1.75859587906134   -1.62901399584417
C        -0.84893998466758   -2.75257815095030   -2.58009066260336
C         0.34384842859566   -3.44473242083439   -2.70157399547213
C         1.39510230062398   -3.14206929621190   -1.85140546348363
C         1.25628830782768   -2.15321367354114   -0.89800032402658
C         2.31853718041885    1.31968306525817   -0.06394934332709
C         2.10920567979979    2.66230632994640    0.29716545099090
C         1.50345843947941    3.31424273607143   -0.79693968908450
C         1.38806297677250    2.38519792998650   -1.84965842075103
C         1.85764708691089    1.14771281796992   -1.39517832407595
C        -1.76233889808899    1.65254873520403   -1.58542020465141
C        -2.30331619264735    1.27481524674889   -0.32260465671512
C        -2.28061846336269    2.41031550456136    0.51066264732796
C        -1.67209439107006    3.45828192360040   -0.19842387139341
C        -1.41017202949039    3.00363599926907   -1.50751576386570
H        -1.40507416955059    1.29323153840123    3.97147034538306
H        -2.16474271308495    0.34904054510254    2.67469172730227
H        -1.29532355332070   -0.47897669415998    3.97820375192940
H         1.19891412151423   -0.34790386820552    4.12346025150120
H         2.11875962594036    0.55451345504040    2.89626104102672
H         1.13837080065037    1.42288287154592    4.08381855156142
H        -1.98170598146276   -2.42341724128072    1.50135398624553
H        -2.00574983237064   -4.76195324966493    2.27810196091044
H         0.02589655161943   -5.75411870079677    3.26860312321622
H         2.07858639905147   -4.40063419907577    3.46303848903794
H         2.10335341509064   -2.07404203324058    2.67997139585790
H        -1.93650317208722   -1.24483845807382   -1.53617233929301
H        -1.67867181947073   -2.99222000486263   -3.23019289884702
H         0.45124555356797   -4.21859872827274   -3.44711139401562
H         2.32642038300868   -3.68474990190866   -1.93011861426533
H         2.07672759293309   -1.92616723192340   -0.23128769225246
H         2.85451329118534    0.57900516160536    0.51570494385721
H         2.42629601164718    3.13116680790126    1.22146448680284
H         1.31626584841799    4.37851648045149   -0.86618666200978
H         1.08673492669458    2.60248805778738   -2.86542667008281
H         1.99812644680921    0.26244330378691   -2.00245127182152
H        -1.77152395047407    1.05076621297759   -2.48696031666628
H        -2.82741919207440    0.35262695113303   -0.10224242370495
H        -2.69682505460221    2.48087946560271    1.50705543084124
H        -1.57762471479039    4.47981613480625    0.14785018360969
H        -1.08617882485267    3.62434414578785   -2.33092596141026

