45
CSD_code = DIBHAA | q = 0 | S = 0 | Stoichiometry = C19H20N2NiO3 | MND = 4
Ni        7.24485438863193    4.99250397474989    2.39360532034149
O         5.70832249659127    4.36755289655773    1.59453933306951
C         5.46248365333666    4.08744703754468    0.37480632676603
C         4.20725378525907    3.45425152839163    0.04822026985732
O         3.41970299139847    3.20594252951637    1.13028936733602
C         2.18419044771248    2.57513206397547    0.92605209771978
H         1.52294195926344    3.17551664009633    0.29079719219678
H         1.73798472684754    2.47359883128666    1.91415292516416
H         2.30596200262731    1.58105583592219    0.48060665971878
C         3.89741256560439    3.14556735388434   -1.25055897829588
H         2.96078788042676    2.66813158173016   -1.49386441576664
C         4.78567824881688    3.44513486459519   -2.29744051531806
H         4.50653090368674    3.19173443935514   -3.30862581206109
C         5.97811084103185    4.04766550159156   -2.03348636065286
H         6.66636959975294    4.28114673408158   -2.83320725718239
C         6.34428296084233    4.37345722973543   -0.70752680462394
C         7.57601351025756    5.02352416335774   -0.46290411156738
H         8.13998473635949    5.31105136925938   -1.35553825395180
N         8.07640021700983    5.32433695528269    0.69358796617907
C         9.31324957606149    6.08667727931257    0.71091184884342
H         9.11599079110007    7.03409239787534    1.22626837456084
H         9.63802802698000    6.31885559869328   -0.31276790502781
C        10.44580281345505    5.35143312553333    1.44606883571936
H        10.93510616138539    4.64662398454321    0.77213530130863
H        11.18574034037696    6.08843906792487    1.76299377417772
C         9.90227594656868    4.57355340294850    2.65222230630595
H         9.46655187473066    3.63229113069249    2.29154462460680
H        10.71593729206278    4.30798363278065    3.33401472688474
N         8.83106925151067    5.29010093699969    3.33582233050025
C         9.02540446254952    5.96013857395824    4.43179632632494
C        10.40502899345401    6.27614949324913    4.94889691043138
H        10.55767118251424    5.81223160982771    5.92153685977746
H        10.49404181192265    7.35394110782521    5.06966194655946
H        11.19326775219028    5.95732407185667    4.27602387629369
C         7.91504981475870    6.38072375978475    5.24502454378544
C         8.07965897777475    7.23082033702005    6.35438300012797
H         9.03701135090339    7.69421352458162    6.53672396091521
C         7.05044286593813    7.50633884047642    7.21537064849131
H         7.20432231119837    8.17090548337435    8.05185038386587
C         5.79903156193379    6.91716367311387    7.00871555990077
H         4.99072437490981    7.12451426128944    7.69527784793287
C         5.59186399126135    6.09412726867373    5.93891396013483
H         4.63042854577370    5.64231902447893    5.75032034123645
C         6.61799428929532    5.82030607533897    4.99427248395269
O         6.32563772392868    5.06958080693223    3.99891218346127

