38
CSD_code = DIBJAA | q = 1 | S = 0 | Stoichiometry = C8H22N4O2PW(1+) | MND = 6
W         0.05659202221635    2.25638690996721    3.57598700396607
P         1.66610513278670    0.44587067702276    3.94123238964378
O         0.69197550959429    3.35437859669169    6.22700453985340
O        -2.09139877400957    0.47525621116552    4.95157653609165
N         1.50804067098785    3.73402863621336    2.58226953879694
H         2.04073709897954    4.06410519798076    3.38806363732305
H         2.19614430280134    3.38667376123624    1.91613051581309
N        -1.31625508283939    3.92254405759205    2.88777172473324
H        -2.01056102584481    4.05768824091616    3.62054886404246
N        -0.62653652623255    1.59222401374273    1.51806240087543
H        -0.07297824190938    1.94056103110163    0.73009891692593
H        -0.63700478903993    0.57428082697417    1.43591836406987
N         0.45153969367357    2.90681301453672    5.17539437484265
C         0.77925707956789    4.86949241192645    2.00094102345481
H         1.38504080918312    5.78355400851504    1.98477342152012
H         0.52667094498191    4.62864369820240    0.96329669699839
C        -0.49424838233634    5.13661747915231    2.80894687827108
H        -0.21701371632702    5.42112394458952    3.82936028398572
H        -1.04475532993058    5.97112091248973    2.35532098924874
C        -2.01527201052865    3.60203275438546    1.63208820589747
H        -3.04943483790600    3.96027721400303    1.64274110408695
H        -1.50650746059229    4.09652196409255    0.79938392762917
C        -2.00507192149590    2.09066764344953    1.38999410980730
H        -2.62022778976478    1.59017978610444    2.14452777107094
H        -2.43067897685495    1.87972230764793    0.40000415251208
C        -1.31075827909727    1.11077874618750    4.40855889193533
C         1.80005504167516   -0.03570584093376    5.68898136300579
C         1.32079467436512   -1.15344405709960    3.12567321138667
C         3.41757867648748    0.73317514123276    3.49084206317734
H         2.51703391761687   -0.84784222556584    5.80881768575376
H         0.81988365203331   -0.35035307857706    6.04338027039446
H         2.11971823331510    0.82554513257829    6.27392258179915
H         1.39216979884564   -1.05203326400459    2.04350184005190
H         0.31610183859995   -1.47673212964691    3.39457762928583
H         2.03973250595903   -1.90121368262681    3.45911963772800
H         3.78554002478766    1.60653038752538    4.02710631494149
H         3.51006786666312    0.90273228144726    2.41903693116777
H         4.01862364958494   -0.13270271022096    3.76614420791247

