71
CSD_code = DIBJOO | q = 0 | S = 0 | Stoichiometry = C26H28N2NiO12S2 | MND = 6
Ni        0.00018571000584    0.00035874290379   -0.00085917494928
N         4.97034959732283    0.63552564964895    3.58178837909599
H         5.53078297388565   -0.13277057864525    3.94079675272322
O         1.60448532095783    0.43556266272706    0.88526133199728
O         0.67531553964442    1.50445594194445    2.59880237818902
O         5.75580320422482    4.60721534739019    1.97368952067658
O         5.61693223557830    4.96231742403114    4.20042980393304
O        -1.00561938772886   -0.56164764357404    1.90808518230132
H        -1.91160275227951   -0.27170799082672    1.75564091865340
H        -0.57559222562268    0.14355780805447    2.43271027095752
O        -0.89092143996541    2.10155961950494    0.41940028885727
H        -0.42153107438768    2.71231636512148   -0.15658701761701
H        -0.49333909592216    2.19110188180574    1.30695683184679
S         2.70268641448768    5.35992131478549    2.64200339770117
C         3.80003509341694    0.34319353276130    2.97887596967518
C         3.03671712616028    1.38125927363485    2.48918741499298
C         3.50519048752148    2.71086299903293    2.56047819979314
C         4.71359218271078    2.95541863298955    3.22868413582646
C         5.42922951397184    1.89904160141785    3.75207129706956
C         3.38260839834415   -1.08610103610196    2.91013254489926
H         4.24098103081815   -1.74932249084011    2.99056835450434
H         2.86469990893790   -1.27992626974060    1.97348607639520
H         2.69166021246566   -1.31146609436049    3.72317907418749
C         1.64871216596645    1.09171191979912    1.95465802531805
C         5.45602543076458    4.39506500204461    3.13767007008406
C         6.72154113191495    2.07917878242888    4.46192081839603
H         6.92935116242005    1.25196956381533    5.13788072903302
H         6.69729519036934    3.01777005029064    5.01260808999317
H         7.53281620291723    2.15705794052733    3.73654085043480
C         2.76151842380257    3.77586263977057    1.94311044055894
C         2.04319501252447    3.72223138779371    0.76887727515754
H         2.00692650473766    2.85095323601182    0.13818646196165
C         1.44505577917089    4.94739116445215    0.44385531658368
H         0.86032073081512    5.11675857806156   -0.44320366486104
C         1.70005058615016    5.91181823463291    1.37686409043408
H         1.35211355842253    6.92608954641597    1.37874888230551
N        -4.97054558318779   -0.63691540974269   -3.58356184249494
H        -5.53130771146211    0.13091149119020   -3.94305124299610
O        -1.60466550928125   -0.43512645685769   -0.88657377229915
O        -0.67496062395813   -1.50139709529803   -2.60154111280796
O        -5.75450730222754   -4.60716057189932   -1.97084483792719
O        -5.61595306785799   -4.96456046685643   -4.19711893171761
O         1.00527341380309    0.56307976262624   -1.90924203110122
H         1.91145457205332    0.27347311360986   -1.75756902131310
H         0.57456916951673   -0.14289367587648   -2.43270542004030
O         0.88975330316715   -2.10206207824693   -0.41846224628256
H         0.41771688414911   -2.71116824521462    0.15717714108401
H         0.49403782404884   -2.19206484144295   -1.30653154829010
S        -2.70243347975995   -5.36042527436510   -2.63854433526849
C        -3.80026897499691   -0.34374560201631   -2.98099686596265
C        -3.03654963074946   -1.38117894716440   -2.49056835108518
C        -3.50461906724425   -2.71099766877442   -2.56062291507699
C        -4.71298101175520   -2.95649756565076   -3.22863256977610
C        -5.42902031075081   -1.90076355609058   -3.75279334412561
C        -3.38325415581470    1.08571075543660   -2.91332122452885
H        -4.24174033056904    1.74851289999376   -2.99445347195491
H        -2.86566530200467    1.28045478325576   -1.97675759649365
H        -2.69222505584743    1.31079717497063   -3.72626109655102
C        -1.64857924432009   -1.09047157353384   -1.95653342579641
C        -5.45512370624508   -4.39604048689600   -3.13514607335085
C        -6.72152142644910   -2.08192677249204   -4.46196859311644
H        -6.92971626748577   -1.25539316724174   -5.13862531778828
H        -6.69715803229501   -3.02104534582434   -5.01175903132019
H        -7.53253690202087   -2.15933524391042   -3.73624555211874
C        -2.76079494818624   -3.77522166983520   -1.94206525788983
C        -2.04199447120941   -3.71990428705825   -0.76815929774761
H        -2.00526241444570   -2.84753349050695   -0.13902525848721
C        -1.44443551750095   -4.94479829951907   -0.44110377845418
H        -0.85928729225058   -5.11290343144826    0.44592590182917
C        -1.70036088039755   -5.91077290050399   -1.37228801008995
H        -1.35290780104466   -6.92522059625229   -1.37252898571199

