71
CSD_code = DIBJUU | q = 0 | S = 0 | Stoichiometry = C26H28N2O12S2Zn | MND = 6
Zn        4.85524930402837   -0.00043247291913    0.00027765246969
S         7.39161843117567   -5.27631616235268    2.53463960387137
O         6.57863809975359   -0.37033527101515    0.83742426870190
O         5.68352090050136   -1.43028395071999    2.56602008160148
O         9.28212149691005   -5.17141278695332    3.89648704002916
O        11.34192985661222   -4.63889633519600    3.18786668231185
O         3.97782340859238    0.49942217570087    1.86405416447189
H         3.05592212262639    0.22261755709055    1.84419875477428
H         4.45335988770086   -0.16620634246840    2.41033963184419
O         4.22824803724169   -2.02367134977955    0.38931515060218
H         4.60631280941292   -2.15450707876999    1.28265466530494
H         4.65461529450931   -2.67891331228746   -0.17389015285483
N         9.97635616163882   -0.62479869374328    3.52400788350576
H        10.55018087551091    0.13597442408958    3.87642471301070
C         8.81114235606213   -0.31692840223234    2.91539930299310
C         8.03604769712656   -1.34256062189090    2.42894881748694
C         8.47565170208571   -2.68877671042180    2.52512859080582
C         9.66538260787812   -2.94774726006203    3.22982117845755
C        10.40446971805921   -1.89294385810507    3.72669958238750
C         8.42243070878869    1.12088794653839    2.84577975639228
H         7.79063664512657    1.37672961194629    3.69720175429657
H         7.85402883105127    1.31031980763263    1.93907818506145
H         9.30024392250785    1.76365233178735    2.86166829912532
C         6.65431961024915   -1.03275651623018    1.90436207435577
C         7.70299926029821   -3.70634784161574    1.86803565313673
C         6.36534752292139   -5.64405958226964    1.21671386734126
H         5.87759277930460   -6.59839778224148    1.16962066970037
C         6.31622150258423   -4.65753190818090    0.26953203549944
H         5.78480346797746   -4.73815537260273   -0.66422834069463
C         7.05998799744817   -3.53868295243949    0.65408475894710
H         7.19259129293662   -2.66599914248448    0.03845330935889
C        10.16946281596473   -4.43269647313851    3.45789298825427
C        11.67842790080347   -2.07198460021588    4.46593602882181
H        12.29424200979956   -1.17556480024087    4.43244730551782
H        12.21088141805516   -2.92038425494023    4.03388109430858
H        11.47186350643798   -2.32382377619013    5.50644156518810
S         2.31979510829708    5.27656532225686   -2.53352447839809
O         3.13195593601154    0.37034749420196   -0.83670066804863
O         4.02734642058825    1.42910717650458   -2.56598371383898
O         0.43022225934897    5.17207235168520   -3.89636545067211
O        -1.63001145064207    4.63948108792908   -3.18887756711043
O         5.73368767494525   -0.50013632022362   -1.86329610292995
H         6.65489511128709   -0.22111201949995   -1.84263190089221
H         5.25794976115467    0.16473168393339   -2.41019967105264
O         5.48219696031389    2.02318203685253   -0.38925474853623
H         5.10454266984640    2.15341580021990   -1.28286049783995
H         5.05433548398500    2.67768355305557    0.17372417064423
N        -0.26511541957386    0.62538322798902   -3.52477775961975
H        -0.83900738370804   -0.13523028217843   -3.87745330875342
C         0.89984227081320    0.31716838196191   -2.91578984860444
C         1.67493808859451    1.34257535246261   -2.42876833375363
C         1.23575648793422    2.68891288913170   -2.52516463321354
C         0.04636629218894    2.94819178059968   -3.23033209627739
C        -0.69291455392702    1.89361059517622   -3.72738621818911
C         1.28813095723125   -1.12077605485670   -2.84649504873208
H         1.91904253514460   -1.37683799614436   -3.69851250742984
H         1.85717755015749   -1.31049891662571   -1.94026746922140
H         0.41004659086949   -1.76319984278371   -2.86167172966090
C         3.05647894642204    1.03251937584232   -1.90382985998298
C         2.00833586677497    3.70629771156680   -1.86765853327379
C         3.34571017956663    5.64379855196483   -1.21518078917136
H         3.83339263935238    6.59814246242404   -1.16750966298302
C         3.39471917326328    4.65688401606917   -0.26840499047452
H         3.92606380745605    4.73712579336434    0.66544227553409
C         2.65109771769185    3.53816922301932   -0.65363479948371
H         2.51829823206242    2.66522333088627   -0.03842045045993
C        -0.45733752330554    4.43323709964468   -3.45848391397376
C        -1.96674314748450    2.07289174667997   -4.46683940493801
H        -2.58276391985462    1.17660570312385   -4.43322825409327
H        -2.49901904232492    2.92151410288835   -4.03500744206609
H        -1.75998424014354    2.32446533777188   -5.50737320889136

