83
CSD_code = DIBJUT | q = 0 | S = 0 | Stoichiometry = C43H35IrO2P2 | MND = 4
Ir        2.84699234654316    5.02947397651884    5.08637971450788
P         1.95474470742730    5.24086915882212    2.97647551740248
P         4.14614571230667    5.53075930255307    6.94092993225585
C         2.26797214146627    3.39386068843595    5.68765555972612
O         1.88940294479780    2.35961525891341    6.06686054655207
O         3.45149551329502    6.77829188955907    4.22861090128757
C         3.06603535972150    7.96511805619459    4.61899867794635
C         2.09153369022730    8.15003570831221    5.61315358509581
C         1.69336880155139    9.41390984914054    5.99205380705767
C         2.25116716366285   10.53329367817671    5.39773482031445
C         3.21580718732988   10.36902036186313    4.41545749606788
C         3.61939562955937    9.11151630209026    4.02611569493251
C         0.86321576405897    3.98013937706957    2.20611652180887
C         1.25420079079741    2.65495455535710    2.36707020780499
C         0.52428878450930    1.63250295286859    1.79284263250672
C        -0.61170860123134    1.92701305745618    1.05514418755668
C        -1.01008912615880    3.24317189661037    0.89522496738375
C        -0.27590838442432    4.26866595597219    1.46605561988025
C         3.19936541578273    5.33785887329187    1.65389890908956
C         4.54336114102329    5.17120884595865    1.95946147903239
C         5.49450801036801    5.21701478986695    0.95610337432492
C         5.10641468509634    5.42094442311854   -0.35773499575498
C         3.76417043361516    5.57335854272837   -0.66893134862697
C         2.81081990428522    5.52712515893078    0.33115092216041
C         0.95357846272913    6.74756624765430    2.81818179302691
C         1.34985759789149    7.86672795904847    2.09921736276442
C         0.59130365223317    9.02319609529984    2.15179398470878
C        -0.55574329406319    9.07222541323748    2.92458709107508
C        -0.95147468542058    7.95942276905408    3.65025950883336
C        -0.19545236047614    6.80474151558126    3.60364625027021
C         5.24436957983324    4.17818074135627    7.51087955731406
C         5.51956189095631    3.15639768503637    6.60699998724726
C         6.36536547548809    2.11982977696855    6.95539795570204
C         6.93923869863569    2.09138367555776    8.21597762863856
C         6.66420402394427    3.10176890397228    9.12239747375350
C         5.82290776292633    4.14357188981960    8.77347529456376
C         3.32386240209346    6.03424832666012    8.48841761571104
C         2.02028643327264    5.58757206795075    8.68125627318934
C         1.33377203572686    5.90664306990686    9.83827630944459
C         1.94461207439122    6.67861580681080   10.81310194448320
C         3.24180945256681    7.12794324728204   10.62727061698873
C         3.93252780832726    6.80905212351620    9.47148163913699
C         5.36319286834227    6.85167564617051    6.63703745486690
C         5.06407229122155    8.18695980451571    6.88741654285366
C         5.96013774000774    9.17738062498318    6.52821628053417
C         7.15112505851905    8.84745777771143    5.90423858017856
C         7.44659329093652    7.52023036999079    5.63765053469866
C         6.55549143744999    6.52669440934397    5.99658360907223
H         1.64423215521126    7.27123430179545    6.07083405448221
H         0.93849294741665    9.52684091190035    6.75932593543943
H         1.93627342783117   11.52325144233831    5.69413649776310
H         3.65807680403251   11.23769877068233    3.94604818683418
H         4.37365741740430    8.98021485215853    3.26237106484753
H         2.13723010854603    2.44263532299114    2.95751502686965
H         0.83495836457565    0.60623769852448    1.92208046829750
H        -1.18826213385594    1.13061778293667    0.60798279650060
H        -1.89745928937080    3.47350231154562    0.32305997016693
H        -0.59669327659411    5.29421552218712    1.34117138307683
H         4.83311575756285    5.02354256280409    2.99109122561786
H         6.54045134586333    5.09310704323165    1.19725172219025
H         5.84854337513505    5.45872306740719   -1.14196354661614
H         3.46109006286449    5.72759525628851   -1.69462491435307
H         1.76216142825228    5.63670404772993    0.08886908147830
H         2.25722366800298    7.83915059045367    1.51309383651910
H         0.90688882376608    9.89491687065611    1.59741098594216
H        -1.13748358138091    9.98104949154152    2.97001005435230
H        -1.84154647975574    7.99925588597323    4.26140443706624
H        -0.48099753848388    5.93201526179533    4.17962063052121
H         5.04726707641656    3.18397557628916    5.63035785139129
H         6.57306529472362    1.33106827046157    6.24751528478287
H         7.59578609097196    1.28029165565434    8.49411784502826
H         7.10634070380763    3.07810285549033   10.10780861777354
H         5.60915629843934    4.92150261344675    9.49116297263098
H         1.55477057984310    4.98933826157143    7.90675186789017
H         0.32141250094014    5.55787873559945    9.97926210859687
H         1.40959736646978    6.93438770675696   11.71578744475733
H         3.71831428184466    7.73179287378944   11.38610201987193
H         4.94102539591775    7.17368676358965    9.33072154810135
H         4.12620899497465    8.45595390306534    7.35180553160092
H         5.71650216597866   10.21123465690369    6.72327801873421
H         7.84514909631942    9.62396653704413    5.61765490735719
H         8.37071290149050    7.26024217583380    5.14152540485623
H         6.78003815182931    5.49055981236644    5.78046966039510

