45
CSD_code = DIBKAA | q = -1 | S = 0 | Stoichiometry = C4H16B18Br6Co(1-) | MND = 10
Co        1.38944518871323   11.21471149450176    5.42130711647140
C         1.75244962045202    9.22772393221492    5.68672003924782
C         3.05513998103851   10.08178253690559    5.72299003608599
B         0.88245662203448    9.52205970335720    4.29411158218734
B         1.82051418071706    8.00477191974080    4.50635637210745
B         3.24127358237425    8.38724717562032    5.45917690001636
B         3.18616155704952   11.03194724550012    4.35819903388653
B         1.82722881191097   10.63407647428305    3.35699053890472
B         1.92401398514345    8.87341984645571    2.98012808257360
B         3.40718765674833    8.20806363023186    3.72001147940767
B         4.19471771045152    9.56093380730061    4.57241194874498
B         3.41678476885432    9.85192173659833    3.02167363039825
Br        1.06244589001876   11.85977038336616    1.97202824184699
Br        1.12412207407839    8.09165628873762    1.34412371803688
Br        4.51534230139583   10.31454808948238    1.43845916910486
H         1.29042549188518    8.95091706724886    6.62656520821973
H         3.45656361054911   10.36941670105587    6.68713574452753
H        -0.28627185804344    9.37659588616860    4.25984474429909
H         1.23698557731276    7.00022949115471    4.68331385076887
H         3.64490583860435    7.73417268066097    6.34426400181680
H         3.78638797250123   12.04574849616438    4.37283926857265
H         4.00268956503697    7.32070830119276    3.22615888421798
H         5.34083885966096    9.68996336920647    4.79738415600600
C         1.02693734334036   13.20181898239483    5.15613595439705
C        -0.27593664156967   12.34805002459912    5.11946125472371
B         1.89654399572387   12.90704358472506    6.54890085698764
B        -0.40748420698013   11.39768615946626    6.48404680654135
B         0.95130412135847   11.79507768581570    7.48561958316974
B         0.95890954297833   14.42458306015369    6.33672355562397
B        -0.46171773218854   14.04260495605111    5.38350701956767
H         1.48922039877933   13.47865929206199    4.21642632045470
B        -1.41564190015733   12.86898843369450    6.26984603633607
H        -0.67725503347228   12.06060999150184    4.15522066113236
B         0.85485025909880   13.55567773481606    7.86278289878410
H         3.06519115059651   13.05226153679920    6.58375095912344
B        -0.63815746830577   12.57754302527878    7.82070942157828
H        -1.00795219486304   10.38404283094445    6.46911311502811
Br        1.71545685338592   10.56915291230029    8.87069350116586
B        -0.62799453861423   14.22152057038822    7.12266774784098
H         1.54271058529698   15.42903787497112    6.16009946826934
H        -0.86500853209834   14.69591143419728    4.49844355122447
H        -2.56173726471491   12.74027952214358    6.04456575720649
Br        1.65440220428300   14.33695262055534    9.49918002113612
Br       -1.73733414816463   12.11495389969279    9.40351483712166
H        -1.22341578220047   15.10895761029977    7.61649692513744

