43
CSD_code = DIBLIK | q = 0 | S = 0 | Stoichiometry = C18H16MoN4O3S | MND = 6
Mo        5.67996865615086    0.96290737828356    9.61453319140561
S         4.43404214268087   -3.31863288040428    8.63905230142749
O         4.90297872820013    1.50070280623149   10.96294232016544
O         5.85663722230279    2.53369001817149    8.60106160418585
O         7.25825232991980    0.57183751151680    9.89062959619654
N         3.42419740689165    1.26001531630997    8.64004735683343
N         4.88209935659094   -0.91131645292782    9.73383447755863
H         4.51893507411407   -1.41205784437369   10.54330352768526
N         5.83771681239971    0.12421350461758    7.65630948993764
C         7.03227115030952    1.94206886322230    6.62007796649647
C         3.14741179161893    1.77722121823803    7.44770424734757
H         3.98011496727842    1.89180913036874    6.76240458894086
N         5.44174580537947   -1.17088109747699    7.51362156904367
C         8.38003773902014    3.71039901641129    5.55617261561879
C         1.87094024482908    2.15854806772664    7.06558877783725
H         1.70086791680688    2.57569910788958    6.08544207131751
C         6.52335133631783    0.60990836938078    6.66859299820564
H         6.71902712594474   -0.06956038642373    5.84139481667928
C         7.89930605530504    2.37374450882150    5.55754330404648
C         8.00195183006930    4.59220569597978    6.59660138567274
H         8.38487474823567    5.60250820266209    6.58043435152767
C         6.67877356664111    2.85687086461227    7.63457831510426
C         2.42509954633414    1.10650473100957    9.50276417341454
H         2.70211303337478    0.70886563981980   10.47004508382151
C         7.17753089273719    4.18433844010604    7.59773022437375
H         6.88175187594827    4.84199269492980    8.40346156591025
C         8.31895985766829    1.53447532984234    4.50693256157012
H         7.99249290619307    0.50784954196884    4.46900570144820
C         9.23403715861510    4.14913026967930    4.52664256804753
H         9.58564016616600    5.17053265902785    4.55113388630980
C         9.61619630937804    3.30606332234904    3.51957359289461
H        10.27262964169619    3.64761625581831    2.73356413202944
C         4.97128253712060   -1.64865563993260    8.63091427222291
C         9.15197435473795    1.98727267632353    3.51661702570025
H         9.45645819171361    1.31815853197135    2.72521542919124
C         1.11618414879358    1.45613300832017    9.20988959606332
H         0.34104664731351    1.31240163656541    9.94573870143097
C         4.88935280701941   -3.82704222700718    6.95871905086480
H         4.61237477302741   -4.87178895035554    6.86381468049003
H         5.95850014897267   -3.69621524456491    6.83476743898876
H         4.34794114860037   -3.21471102240342    6.24636699860832
C         0.82999048902381    1.99393187632408    7.96541901624501
H        -0.17755864144091    2.28074555137214    7.70311342713739

