41
CSD_code = DIBLEG | q = 0 | S = 0 | Stoichiometry = C15H17MoN3O4S | MND = 6
Mo        5.75761999189227    0.50033896941795    2.58405217863931
S         1.41995763385036    1.80390264398612    3.23486219234962
O         7.22768858127230    0.48023367340544    3.72898603226397
O         5.90353143140854    3.01201088557121    3.70298163704399
H         6.37721621869944    2.97426508010996    4.54623320647984
O         5.43769010478720   -1.09394200755334    2.31579680173996
O         6.37365087047839    1.28824341060894    1.28056716717603
N         4.78247797994330    0.51209014836762    4.48991184743037
N         3.48019393978051    0.88829173929847    4.49854218530789
N         3.93843108097919    1.31414666395063    2.29216458630461
H         3.58730429222391    1.73324491532429    1.43509063064915
C         5.20895204102521   -0.05445125243353    5.57922369658488
H         4.47248284111320   -0.17604296090852    6.36998249774743
C         7.51833299169087   -0.22921382736071    4.79688716077067
C         3.09690858566923    1.29791478760841    3.32104018192728
C         6.92012412395912   -1.27167536117807    6.93708176831488
C         8.26933016939232   -1.69195753002282    7.08055371912001
C         6.61661715588761    3.91652652259242    2.86510569218113
H         6.13318165978672    3.85097006481353    1.88873955804582
H         6.50122126489796    4.93405868527128    3.26680164876368
C         8.85583825160530   -0.66008404253401    4.97450448061656
H         9.56379343253516   -0.41258259390675    4.19546255077708
C         6.54253685377566   -0.52039202541176    5.77122350624874
C         9.21496043756223   -1.36979925238921    6.07850776227387
H        10.23472423174788   -1.70337716783388    6.20546457207940
C         8.65578308932983   -2.43286573221052    8.21398513877128
H         9.68785814747166   -2.74074513140727    8.29975902946116
C         8.08495672697491    3.54441247501073    2.74242793089742
H         8.59014966665239    4.23994948878491    2.07840596045795
H         8.15838539542410    2.53894938790533    2.32394807078760
H         8.57515468059087    3.57038208803731    3.71617665814799
C         7.74870374573890   -2.76194938486743    9.18340413612435
H         8.05041970626948   -3.33183321305180   10.04913527463650
C         6.01376403745177   -1.63476871695492    7.95181402082372
H         4.97645760814238   -1.35166240905334    7.87790686102488
C         6.41690420272565   -2.35863060655678    9.04415404902665
H         5.69861753106701   -2.62394947603694    9.80571539354276
C         1.17866263534534    2.00852724107615    1.43821459117275
H         0.11469813835444    2.17579514979627    1.30468637544376
H         1.47448823818035    1.09911617420752    0.92185133629753
H         1.72833028432932    2.87315249651083    1.07514791255723

