66
CSD_code = DIBMIN | q = 1 | S = 0 | Stoichiometry = C30H30NO2P2Ru(1+) | MND = 6
Ru       10.30944987400408    2.45285731362666   12.82494171766499
P        11.73913730474298    2.59826708907623   11.00373700258188
P         8.69932344294054    2.84190891958619   14.45293049585209
O        11.81955959409911    0.22390328721870   14.14764264251650
O         8.53273557586512    0.38955549188910   11.54715186978642
N         9.38942159245900    4.22861621488337   11.89353072996676
C        11.22373898298536    1.06379697284721   13.65294598790885
C         9.18700981554236    1.21623560164901   11.98141645571639
C        11.04787498622412    4.06116485673233   10.08602371520004
C        10.37305779819268    4.98133341790721   11.09720173003871
C         8.72506055228709    5.08331221064014   12.89140591901124
C         7.74607039101700    4.25370403147258   13.71498030074407
C        11.73373764686692    1.24998898611020    9.78574224176893
C        10.60363252449961    0.99885296227923    9.01098220296908
C        10.58144536525653   -0.07572525450536    8.14230335067791
C        11.67713470254845   -0.91981674575570    8.05375406850668
C        12.79213897549748   -0.69261669585522    8.84365280561008
C        12.82190529872395    0.38358797157977    9.71192457424494
C        13.50120950375875    2.98099705004156   11.17748568468068
C        14.12106211827951    2.88996522669762   12.41809675513558
C        15.47550325082945    3.15296547449635   12.53220230525514
C        16.21069165680391    3.50283144155207   11.41187882188975
C        15.59643888953693    3.58192615268543   10.17023203983944
C        14.24626401654724    3.31763367679599   10.04723071535199
C         9.11951851047037    3.36655989593093   16.13803805555535
C        10.42205860582769    3.21977515737403   16.60046918792934
C        10.73247911874080    3.56560573786938   17.90400357092223
C         9.74568392766670    4.05057193627126   18.74620070430468
C         8.44175468488602    4.18025604456429   18.29124136535590
C         8.12244665914421    3.83258642169219   16.99286622672452
C         7.45708900290929    1.56091540524107   14.78281852638241
C         6.09128543239452    1.80169210146551   14.88523167445134
C         5.23255426377317    0.75607267529967   15.17742165889699
C         5.72710389795507   -0.52257719758409   15.37467444515514
C         7.08932282096180   -0.76392800729073   15.28348296445953
C         7.95162685387217    0.27430723279870   14.98874645440448
H        11.21095474333948    3.48120548565293   13.54048079625372
H         8.65949464561448    3.91512447905630   11.24194915276261
H        11.85039747704745    4.58918899982243    9.56558561384096
H        10.32527207858524    3.71239972668526    9.34136867632894
H         9.88548293010591    5.82091304718149   10.58158978987089
H        11.12586954264772    5.38204051557617   11.78514114668282
H         9.49772601773098    5.49603309033975   13.55055881034779
H         8.20309978191474    5.91472533358095   12.39649886340440
H         6.96300144919591    3.83922294003957   13.06831986103958
H         7.28228758315378    4.86797120898199   14.49048945040463
H         9.73271771315060    1.63856490991062    9.08461105647602
H         9.70617390318999   -0.25881721601241    7.53757839528494
H        11.65662369282129   -1.75855423704185    7.37543843316190
H        13.64080693307130   -1.35678932344732    8.78634614437716
H        13.68940066596967    0.55631235780290   10.33382326589165
H        13.53497382338523    2.61570590436347   13.28634610495920
H        15.95709109711869    3.08209802115039   13.49541923240020
H        17.26616394098002    3.70830270482443   11.50198609124458
H        16.17380066519672    3.84402436728119    9.29673174037500
H        13.77119123557321    3.35318085265277    9.07550948393129
H        11.18338512896632    2.83990175300815   15.93045642269945
H        11.74409250013295    3.45425734034279   18.26315136898756
H         9.98864016095598    4.32129295352398   19.76211992506040
H         7.67205670516490    4.54706659962237   18.95312358513666
H         7.10066441597709    3.91146275940126   16.64762352474662
H         5.69084127189075    2.79418735631971   14.73664728069929
H         4.17182346636960    0.94226542717027   15.25177297342481
H         5.05037237428536   -1.33213434011216   15.60003518937298
H         7.47617993689664   -1.75923418558567   15.43934445545611
H         9.02058648145884    0.10139811062221   14.91186419792409

