47
CSD_code = DIBRIR | q = -1 | S = 0 | Stoichiometry = C23H13MoN4O3S3(1-) | MND = 6
Mo        4.08289726697066    2.09243899963399   12.24029918681354
S         4.72269832791755    0.05848172261931   10.99459335861051
S         4.67587042121127    0.77848694592623   14.21696802002376
S         2.81062707719374    3.49735192054586   13.90979984488431
O         5.44406498714935    2.98459625143197   12.09168612534857
O        -1.39897121868994    5.43468931220787    9.11503151051413
H        -1.76455071870512    5.84787820492650    8.31843797811004
O         0.28507482722988    6.79784831491861    8.59327285639767
N         6.63979844610721   -2.11295085393790   15.26007806620991
N         6.73397043579588   -2.97065899587584   11.32972963645878
N         2.15831008038688    1.16153958856730   12.15773928120923
N         3.30400185256060    2.77499010014098   10.54889720247324
C         5.51078747741333   -0.59573695290170   13.54519077296049
C         5.54036464251227   -0.89557878814692   12.21048755664171
C         6.13886272977970   -1.43686457293270   14.47633578399564
C         6.20097125984016   -2.03700841156525   11.73991987641163
C         1.57005205615797    0.36085338318233   13.04301218634238
H         2.13797269525925    0.13821170178864   13.94130440099555
C         0.30485186566094   -0.17740697842382   12.86717294216812
H        -0.10366117682737   -0.82167386793199   13.62990913712110
C        -0.41916469816217    0.10957130737574   11.71783366552759
H        -1.40406912687831   -0.30650435235555   11.56135952976405
C         0.14853153234619    0.95292121670437   10.76731251803248
C         1.44468953056512    1.46130870413784   11.03731065597857
C         2.07482686911083    2.33240303949521   10.14136220450922
C        -0.47758124561761    1.35700972248219    9.55239997947231
H        -1.46608622292257    0.97340549847078    9.34147506535375
C         0.13709003346267    2.19804874899719    8.68636473374314
H        -0.35371702735772    2.49772016584019    7.77133158954053
C         1.43721615293294    2.72806027914041    8.94388047043990
C         2.11156804812054    3.61705722210477    8.11129020965855
H         1.66767606632982    3.96263306378240    7.19133989316554
C         3.37190890075659    4.05335462891505    8.51653468163835
H         3.92750445381487    4.74470822715501    7.90228499918202
C         3.91701431720823    3.63112738825635    9.70685413246522
H         4.89141051792820    3.96755069559572   10.03909202297574
C         1.89778216540382    4.27804697736763   12.64643038111423
C         0.56875901501416    3.91527469761242   12.39763190309808
H         0.09775808435563    3.18515771639402   13.04179152814732
C        -0.11728861621367    4.46496730777340   11.33937849288647
H        -1.13070888906882    4.15922327678599   11.12769614209111
C         0.49943752640674    5.41117632355572   10.51694167762156
C         1.80261337794958    5.83425037880555   10.81682873944230
H         2.25249757221315    6.59033093271262   10.19066135547800
C         2.48844056891285    5.28336758001372   11.86975084868055
H         3.50324868016538    5.58228037726791   12.09962616464189
C        -0.16835092170084    5.95926185140389    9.34217069166684

