42
CSD_code = DIBSOY | q = -1 | S = 0 | Stoichiometry = C20H13MoN4OS3(1-) | MND = 6
Mo        6.68211958798997    6.38955368170497    5.52023933816930
S         7.17389777554821    4.18812077000397    4.55104551198144
S         7.88135606040289    7.25073876813125    3.52770547395042
S         4.90388430079792    5.16321203398969    6.78811106621298
O         7.88594752547577    6.42094970628438    6.62654926529475
N        10.42022576351745    6.24973448699786    1.10828759692411
N         9.51943026671807    2.51636655676584    2.31298749112420
N         6.12485366122542    8.24776274225334    5.91579479312011
N         5.01271087736419    6.72960288641066    4.29243648243104
C         8.37677390662453    4.55281971483601    3.34459874792523
C         8.68153169771372    5.81933246191592    2.92404068728115
C         9.01364797294625    3.44281333152621    2.77002384848464
C         9.63859911429857    6.03999465506997    1.92658325896718
C         4.04130534792226    6.61208221523354    7.28328724965108
C         2.84031764546725    6.97016456465494    6.67657568887151
H         2.42552710865967    6.33017231354378    5.90991558316005
C         2.19347069618185    8.13372751233665    7.05277531986670
H         1.26961271838682    8.41263079260618    6.56411065238237
C         2.72617902520477    8.94116817529119    8.04222565985805
H         2.22402627847302    9.85465201296192    8.32795276506309
C         3.90583891107339    8.56953501596378    8.67228420156157
H         4.31901416834452    9.19267185818535    9.45332168124765
C         4.55778601562849    7.41165029960180    8.30231697488668
H         5.48383265522665    7.11235091111503    8.77706738881809
C         4.45154985311172    5.81618724354404    3.48776395456236
H         4.91905598735440    4.83565485841256    3.48197260633938
C         3.35037605060653    6.05901046975185    2.70609849550226
H         2.94925117747183    5.27835842439999    2.07990506065442
C         2.76724202481697    7.33391124806327    2.73450588025883
H         1.90537806910292    7.55628885672502    2.12243565371152
C         3.31220101772933    8.28230521420354    3.55689945469334
H         2.88833673697074    9.27187267154647    3.61667972655644
C         4.43505721398069    7.96346733957048    4.34356195569190
C         5.08223211950429    8.84676712260765    5.25309708272773
C         4.71624952700654   10.17992391071251    5.48846532594124
H         3.88866155454013   10.60253287281099    4.94076448417438
C         5.40370363541508   10.93107293925114    6.40314582991661
H         5.13699085848227   11.95695879540523    6.60355153501869
C         6.47637253915659   10.31918349040434    7.07675784404182
H         7.05106538276747   10.86950488273929    7.80526149193385
C         6.78724390621636    9.01837813254298    6.80972657438733
H         7.60754326458288    8.51631405992750    7.30847031665129

