45
CSD_code = DIBVOB | q = 0 | S = 0 | Stoichiometry = C20H20N2O2Pd | MND = 4
Pd        0.12827879682846    5.01569617278282   11.91486577081689
O        -0.50736812663835    3.16384643535990   11.45975481445870
O        -0.32338849463774    4.65336964721945   13.84075704203221
N         0.68576987046578    5.39216974928647   10.07740941942712
N         0.67210694974973    6.85754468514686   12.28117142362632
C        -0.61262454924213    2.70040490035311   10.26990488834561
C        -1.23077512825026    1.42748828819186   10.10844962297131
H        -1.58692588268593    0.95003025054019   11.00874020746794
C        -1.37109108519576    0.83383116720305    8.88742875454855
H        -1.84794801520670   -0.13270827264581    8.80922511682340
C        -0.89885836127107    1.46574638878776    7.72936516594694
H        -1.01047517865959    0.98873922793435    6.76788046439352
C        -0.29664255474709    2.68790992242275    7.83551818240936
H         0.07195794702981    3.18325349035754    6.94684232328974
C        -0.13768867060683    3.34331868911761    9.07598524576152
C         0.51349076497625    4.60748788421767    9.06439324260926
H         0.89453728595499    4.90768101789907    8.08810100170372
C         1.45382274794680    6.63260917510954   10.00107001776861
H         2.48196256680761    6.39604607560108   10.32357413925565
C         1.52149062616529    7.30692953747825    8.62769489250462
H         0.51008531712779    7.53993648547350    8.28693279912322
H         1.98638528044466    6.64177753351858    7.89893190469127
C         2.35494448713030    8.58329556914990    8.71689028050768
H         3.38033694916668    8.32479225038760    8.99017844013649
H         2.38231595704523    9.06823127589149    7.73978848025245
C         1.78092424866776    9.54074043498770    9.75311501454586
H         0.78065644601384    9.85257520469287    9.44471891818563
H         2.40400244741775   10.43429216570931    9.81676840867020
C         1.70020576652860    8.87822739815578   11.12654562751142
H         2.70168351941620    8.62493344703405   11.48186911268389
H         1.25374230318431    9.58635710319786   11.82592003808261
C         0.85137022956290    7.60673722253618   11.04041209075727
H        -0.15603139763907    7.88557773308544   10.68729223381529
C         0.77432264928037    7.39350262405719   13.45289316326839
H         1.08004388106937    8.43650317334290   13.53713643949413
C         0.51471107057710    6.75520610780091   14.69725837608589
C         0.77591577004398    7.49645314446415   15.87009886295296
H         1.17317463472213    8.49729007266419   15.76229467744893
C         0.54827166369869    6.98874801780745   17.11842155819821
H         0.76122568567671    7.57575970816593   17.99858023976361
C         0.03040383659817    5.69295745525003   17.24480547328876
H        -0.15325474961794    5.28709602348295   18.22932057264164
C        -0.24417254631948    4.94389367767183   16.13717176792476
H        -0.64619677616286    3.94547146163390   16.22065187372283
C        -0.01749818241616    5.42585027747462   14.81637191008583

