94
CSD_code = DICBAV | q = 0 | S = 0 | Stoichiometry = C54H34ClIrN4 | MND = 5
Ir       10.03602772085479   14.26132307742948    5.28339724711306
Cl        8.42516753208085   15.96783801448211    4.89576650915899
N        11.03059679755609   14.75117604887404    3.60149127756052
N        11.68689307888427   14.16092363026917    1.56633519848483
N         9.07875897224120   13.71783426956347    6.96507772799469
N         9.06973476841149   13.57413076465050    9.17839386150435
C        10.49182923885759   12.41946930774680    4.61882744101368
C        10.24601256593077   11.19653711720079    5.23148746627331
H         9.91512604779197   11.16809560068483    6.25971962883301
C        10.42755441048585   10.00403997901750    4.55113024690481
H        10.23183715732808    9.06591641566710    5.05064725281069
C        10.86068044928258   10.00504485059204    3.23385723196944
H        10.99811021912812    9.07240367617191    2.70688826136830
C        11.11972338633285   11.19941173769632    2.59164012096692
H        11.45736697575466   11.19015284465571    1.56687835545120
C        10.93903692057937   12.40279457449452    3.27188319814243
C        11.20211825471568   13.72662749177911    2.76178554000362
C        12.02610226648416   13.33181123331893    0.47028087944183
C        13.34745730737795   12.93746866567881    0.29627279450986
H        14.10010517294356   13.28043338821110    0.99014347698190
C        13.67911990266398   12.11232761728643   -0.76318567201008
H        14.70416313161152   11.80278392099269   -0.89975688355326
C        12.69880803634636   11.68072201151403   -1.64199503919482
H        12.96109821580881   11.03370422733029   -2.46527985820860
C        11.38263544975120   12.07574005491417   -1.46496856813351
H        10.61932772655489   11.73821842059672   -2.14953551183366
C        11.03968293343066   12.90177009389166   -0.40922060323194
H        10.01768738170258   13.21423373735643   -0.25672251106025
C        11.83922989250820   15.52948167792208    1.66365627040812
C        12.23567274491549   16.50509440593006    0.70534238054625
C        12.54085190301792   16.19799910404892   -0.62823689745133
H        12.50212294798868   15.17320302664582   -0.96070726465442
C        12.87326757088906   17.18423634297407   -1.52391273776687
H        13.10045711817408   16.93054911114339   -2.54864011194812
C        12.90467193486869   18.51093068385028   -1.10702101836229
H        13.15546961718680   19.29124586703152   -1.81024067808125
C        12.61174939974060   18.83179375681744    0.19727214496455
H        12.63529678464181   19.87098792059104    0.48208796695672
C        12.27654179220393   17.85587456165541    1.14628707492599
C        11.99126978806876   18.20054010557008    2.52814751412145
C        12.12649547713249   19.50671174414047    3.02266287504360
H        12.43818611943844   20.30628955088694    2.36974199887297
C        11.88039708160848   19.80638942456959    4.34193719449563
H        11.98946175717935   20.82442217342004    4.68745768369160
C        11.50669544417651   18.80794948916001    5.23792568113449
H        11.33251996323478   19.04868397140384    6.27592938770275
C        11.36648438353121   17.51784515809657    4.79233429989107
H        11.08839340313507   16.72544424314895    5.47254732159955
C        11.58052333844365   17.20523016063637    3.44604621923958
C        11.44929921190631   15.87360769012318    2.95437347038238
C        11.60980339474667   14.09603716825490    6.52372757622870
C        12.95757994544941   14.25773515481021    6.22567961228082
H        13.27417833918544   14.34388439044444    5.19626439118668
C        13.91182763751998   14.30279716054024    7.22842749419887
H        14.95399027743379   14.42777781599275    6.97145042824833
C        13.54045757821300   14.18795397027540    8.55962035770504
H        14.28905658458168   14.22537903642311    9.33713024007580
C        12.21133189746755   14.02520780003947    8.89535970061314
H        11.93026171489402   13.93911829460043    9.93361877363824
C        11.24604739116875   13.97878347256997    7.89063416105357
C         9.82848864645388   13.78308870154122    8.06803916844774
C         9.55618501376163   13.54308921676810   10.50768113244545
C         9.91074983013016   12.32562033962166   11.07681678947095
H         9.80047738175665   11.41815450501156   10.50239263979030
C        10.39954416414305   12.29464494644057   12.37056272697903
H        10.67667145211098   11.35089153708817   12.81527192462563
C        10.53592421181540   13.47034451656418   13.09089355225086
H        10.91943773878511   13.44206946084713   14.09955018664163
C        10.18311969888183   14.68217979425372   12.51913191853165
H        10.29111936922365   15.59771297255025   13.08069380712353
C         9.69310770240134   14.72500703561040   11.22577151699770
H         9.41691103650684   15.66192265589143   10.76615379311018
C         7.77592881968405   13.35675275577284    8.75013884433831
C         6.56664518264427   13.14225900434381    9.47038462830049
C         6.49377097726749   13.13174201039287   10.87061357111815
H         7.39126832834926   13.27140832449693   11.45122837643532
C         5.29461409249943   12.95767116620086   11.51637275799163
H         5.25631922758241   12.95548667931864   12.59555793337391
C         4.13016797698076   12.79348590971938   10.77327513225041
H         3.18313853167127   12.66584563345028   11.27646191935893
C         4.18164105448436   12.79653815077491    9.39948297091238
H         3.25842624931666   12.67437492694953    8.85691548424475
C         5.38560416339476   12.96110845623060    8.70007620053070
C         5.43547216736668   12.93449222776847    7.24859460611284
C         4.30601672504491   12.66903877931828    6.45933424142112
H         3.34791666985543   12.49320934097250    6.92179122699870
C         4.38208459971983   12.61625665297179    5.08739238146875
H         3.49078561551412   12.41441258920839    4.51076505724925
C         5.59829538920456   12.80789037904843    4.43639529813325
H         5.65156016448001   12.74847635459633    3.35959699230883
C         6.72505403027283   13.06889899284193    5.17428643995634
H         7.68185212576103   13.21300382971227    4.69079464476055
C         6.65597758674885   13.15714196610106    6.56834282072639
C         7.80916962062985   13.42736298185848    7.36069673539078

