89
CSD_code = DICFAX | q = 0 | S = 0 | Stoichiometry = C38H42AgBN6O | MND = 4
Ag        7.65202904056479   -0.01069014363741   10.27369197001055
N         6.98312155063209   -0.33380186523995    7.11303761702397
N         7.84365226102681    0.23178328451653    7.96529710315750
N         6.53586473560393   -2.41365661119183    8.42019573100026
N         7.22893670524707   -2.15134354564532    9.53215691623621
N         4.95427636064581   -0.48178279428900    8.55625598925447
N         5.45204464432252    0.19336442443446    9.59693663501336
C         9.06973969316073    0.63466864874890   11.43999674981122
O        10.19703345967895    0.82937844100552   11.38324100144092
B         5.86184559509159   -1.28795927240986    7.59659009798964
C         8.66141774174981    1.01599463161568    7.26997846830377
C         8.32231076844893    0.95260592472335    5.91406760944871
H         8.78492661571463    1.47054157159420    5.09873545337704
C         7.24928032824405    0.08695703483043    5.86838579977535
H         6.67717385251159   -0.24181719230913    5.02547412509375
C         9.71501187318990    1.77349745213436    7.96308989145137
C        11.05179491833227    1.39547438305694    7.82776523082548
C        12.02709197340713    2.10243713101462    8.51507970581588
H        13.06201988371834    1.80589383613162    8.41406818919701
C        11.70252902943210    3.17470092864251    9.33114454330580
C        10.36859345461174    3.54109869155205    9.44834821854441
H        10.10453315216932    4.37868754667107   10.07939037356839
C         9.36751720974893    2.85396408647075    8.78067671665816
C        11.43068988898456    0.24211965871555    6.94663621625072
H        10.73995126482379   -0.58838881974208    7.07786890417444
H        12.43894470851831   -0.09812787626613    7.17008448200481
H        11.39502607587318    0.54153290903820    5.89910285769792
C        12.75961920888833    3.91709620458201   10.09135691322208
H        12.60292089138275    4.99181399258645   10.01941455939074
H        13.75120100875202    3.67988069376252    9.71394218526880
H        12.71957877155613    3.64355730217160   11.14593865752182
C         7.93383900728367    3.27850939944949    8.92108150038150
H         7.45014289816448    3.32010568972696    7.94627066366149
H         7.86638326882342    4.25565366415628    9.39331424835874
H         7.38022147718448    2.56140275242305    9.54027267288010
C         7.72689859968879   -3.29526883829745    9.99069792322386
C         7.33596539460722   -4.34115089777720    9.14894502600875
H         7.57541977769699   -5.38096961672466    9.24185849299942
C         6.58549905347871   -3.72863088865395    8.16624056007545
H         6.09601409497335   -4.16001469287227    7.31760043184180
C         8.55999054342047   -3.28998060057269   11.20368089758129
C         9.87157433638041   -2.81291686098980   11.13442142500042
C        10.64089387057094   -2.78868388217511   12.28882022777748
H        11.65686724178654   -2.42252146934491   12.23685130292235
C        10.13400314327161   -3.22083179588886   13.50459115604260
C         8.82872924078327   -3.69200023872888   13.55258604116161
H         8.42485177950454   -4.03249758722877   14.49613075655517
C         8.03296812610384   -3.73169058763139   12.41939837807935
C        10.45079736958894   -2.36578702156760    9.82326689524277
H        11.49319392153350   -2.08024453343035    9.93970634647852
H         9.89929453490004   -1.50611994915694    9.43076193965278
H        10.38315177923010   -3.16679082699441    9.08727606999789
C        10.97084934610214   -3.19412743482690   14.74816427829000
H        10.45178547731512   -2.66444105049132   15.54555207579916
H        11.92370275501305   -2.70387233004514   14.56598961374992
H        11.16487178730988   -4.20909105090397   15.09459040554213
C         6.62611457856829   -4.24696859536916   12.48881653120688
H         5.94641573736171   -3.57951022915212   11.96245847356712
H         6.29986836194461   -4.34153322656341   13.52161444901057
H         6.56040935262914   -5.22686886234327   12.01612059404297
C         4.44174038766762    0.78437459002620   10.22685447004455
C         3.24347338439576    0.48150935325626    9.57028064237173
H         2.25418540005400    0.79628471669596    9.83376916280542
C         3.62272194666693   -0.32766026054486    8.52002336057551
H         3.01986124265222   -0.78922159391547    7.76544421482083
C         4.69670851774448    1.61116278271045   11.41644224402690
C         5.11314232614366    1.01026073722104   12.60723927742342
C         5.35972813602257    1.80825033169874   13.71535408054477
H         5.67530227203443    1.34312649885544   14.63904203784311
C         5.20875343423357    3.18510127670929   13.66394454487719
C         4.79934272969914    3.76455136815162   12.47066885905474
H         4.67974580855250    4.83805764238221   12.41839942112831
C         4.54223778078894    2.99833353997636   11.34565401211086
C         5.26526006644707   -0.48072131838062   12.70335073533767
H         4.42424188884104   -0.98292976161767   12.22755911049953
H         5.32499638684153   -0.79507738856775   13.74257686988799
H         6.18464716018488   -0.80593015155367   12.19548492490963
C         5.49403266203390    4.04136808244678   14.86098047391060
H         5.56984840747534    3.43830334645860   15.76229007480856
H         4.71000318169062    4.78368839327775   14.99908890242544
H         6.43620128442750    4.57275313363262   14.72457608529157
C         4.10303468929691    3.64945704213375   10.06770262797366
H         4.28173023927639    4.72152374176914   10.10083811958400
H         3.03798464409101    3.48490288195471    9.90561126474974
H         4.63684440983038    3.22805010186936    9.21809761372212
C         5.02240030191986   -1.89042698171391    6.35360127618899
H         4.50724696261279   -1.10896078797906    5.79920472923977
H         4.26706534468657   -2.59999258498099    6.68446445813584
H         5.66572548241563   -2.41277782727054    5.64882811677850

