51
CSD_code = DICMEI | q = 0 | S = 0 | Stoichiometry = C20H22Br2HgN2O2S2 | MND = 4
Hg       -0.15901956406471    6.42831453901610   15.06892145320356
Br       -0.50410944193362    4.06068839695715   15.48414518088714
Br        0.28526183751346    8.76610225176747   14.63850665390834
S        -5.67449138060218    5.15378974229630   11.69032743252520
S        -3.47182038543818    6.88693172044234   15.68506461201898
N        -2.40923660552754    7.20000722292977   18.01869808349574
O        -0.16294627861983    6.94318790556424   17.72241206351341
N        -3.05348733497290    5.30272484996524   11.72194169045257
O        -1.43942489360653    6.16860500714828   13.02221521415363
C        -1.70703394491437    7.04747783835141    9.66902998118218
H        -1.74055855091403    6.02570874374361    9.31925186766347
C        -1.91532044701330    7.32735925929738   11.01733041022666
C        -0.22310868606553    3.28776000362583   19.79151600021616
H         0.58521216018709    2.57646773472425   19.72272605141651
C        -1.82139599422673    8.63871939879903   11.47195529641497
H        -1.96432462787607    8.84790997938683   12.52072564539226
C        -1.34886000524575    9.38199828144222    9.24275388059852
H        -1.12562702427483   10.18027489970288    8.55095170134337
C        -1.54793782228839    9.66262821644079   10.58421856757082
H        -1.47697156506247   10.67686483443819   10.94532373493491
C        -0.22064028369510    4.40910124819441   18.98558740385530
H         0.58743387222471    4.58565057611505   18.29317884203811
C        -1.21133793550701    6.52520937309516   18.19694344882595
C        -2.12928705403559    6.24190044785855   12.00641062450206
C        -1.26122066956805    3.07981789203383   20.68472987476882
H        -1.26477564429605    2.20321536888699   21.31511584857869
C        -1.42276889228463    8.07489001170052    8.78824597686766
H        -1.25314333956680    7.85317651952044    7.74515751892094
C        -2.30003521901009    5.12263674955430   19.97084066016845
H        -3.08939566392486    5.85322824409798   20.06759916802162
C        -1.27026467262229    5.32480923378034   19.05095471508357
C        -2.29077884220284    4.00385825393363   20.78086615208679
H        -3.08811380728257    3.85260261103023   21.49323995806760
C        -3.52226826529549    6.48784162239037   17.48829523234539
H        -4.47018702380401    6.86844010248138   17.87571794462998
H        -3.44373728081266    5.41170925251904   17.61875574747637
C        -4.10086480681829    5.43504745558030   10.76288674637114
H        -4.03699050378493    4.66167795868824    9.99148282538404
H        -4.13185361612495    6.42323316278453   10.30810342818160
C        -2.37374403351426    8.55494112403136   17.47993915114298
H        -1.33222205019968    8.85336047518578   17.34423044998583
H        -2.83778047394794    9.22371883748979   18.21124126511198
C        -3.36083489511771    4.23000890516098   12.64617609250101
H        -2.64731193405302    4.23469773656328   13.46924110558017
H        -3.29535654895051    3.27741520912949   12.11146460990195
C        -4.78202314272660    4.47468291675524   13.13340170461140
H        -5.27729195582850    3.56403124723766   13.45858605306763
H        -4.80818480921769    5.21941092847710   13.92854502267198
C        -3.14869771096257    8.61408403701397   16.15510834552567
H        -2.58011878216617    9.09364367359914   15.36235697209535
H        -4.11220345999293    9.11183799917051   16.26568159047547

