94
CSD_code = DICMIO | q = 0 | S = 0 | Stoichiometry = C54H34ClIrN4 | MND = 5
Ir        9.75379135744601   14.01346860273468    5.24024848917057
Cl        8.18768661980775   15.78106066690465    4.92778089889037
N        10.75905266606269   14.52327965286630    3.56606843340994
N        11.34940764840629   13.95767409188283    1.50372413961444
N         8.76398120367125   13.46886129220266    6.89788851521509
N         8.67913956695075   13.39316902375648    9.11261391007028
C        10.21356845328601   12.17901293185216    4.55753654618950
C         9.98425087587499   10.94632407474175    5.15697201097552
H         9.68552828576067   10.90250878652103    6.19452733141513
C        10.14247362780752    9.76474650156110    4.45196895885013
H         9.96203096384779    8.81873910190634    4.94230334471321
C        10.53028477300300    9.78624377283327    3.12072376597532
H        10.64613655063616    8.86212765140729    2.57388221949918
C        10.77241806278687   10.99035799350471    2.49023633773330
H        11.07385294142005   10.99841050763068    1.45403162046018
C        10.62076026311989   12.18203457839850    3.19745197497790
C        10.88685053358689   13.51146171291884    2.70319701979600
C        11.58634312296824   13.15217642571109    0.36394760415848
C        12.86826691736367   12.67931170870486    0.10908666265678
H        13.67343358327888   12.93684746815384    0.78044035357676
C        13.09340508002783   11.88762084267244   -1.00274772297707
H        14.08760770858911   11.51892259145990   -1.20428394796972
C        12.04735958232905   11.56763938723939   -1.85317373961131
H        12.22753637821852   10.94928470021237   -2.71933498887063
C        10.77041207852303   12.03819541113077   -1.59358098175701
H         9.95560350428625   11.78741733547150   -2.25552540244002
C        10.53373665351842   12.83077645947662   -0.48453523052079
H         9.54390471862560   13.20355667500764   -0.26881426473190
C        11.53449023709790   15.32071272389678    1.62175295420918
C        11.94463451562490   16.30245421310206    0.67531454177105
C        12.23124904253040   16.01113881724400   -0.66605189601665
H        12.16057904418640   14.99462084126016   -1.01752166504000
C        12.58957933424811   17.00244988192626   -1.54594735371314
H        12.80389562071789   16.75994776128410   -2.57618286853669
C        12.66635460060984   18.31948024351269   -1.10516039560335
H        12.93983210594890   19.10399971489068   -1.79517838055509
C        12.39117235254411   18.62511725943149    0.20654450040547
H        12.45254424605363   19.65731136257534    0.51044805846864
C        12.03033119628862   17.64316869480029    1.14007323700209
C        11.76788103670079   17.97128615882935    2.53039646251644
C        11.93144208437477   19.26748891978066    3.04245655425475
H        12.24352014726909   20.07255347741994    2.39658134773124
C        11.71078927486200   19.55092471378939    4.36970058322704
H        11.84141230033176   20.56179757527516    4.72846567177627
C        11.33437329753599   18.54503898753888    5.25611705419812
H        11.18066708341135   18.77221001708559    6.30032869862326
C        11.16394633590251   17.26474411915238    4.79306623558749
H        10.87991284305363   16.46782130710064    5.46457471715572
C        11.35237850667912   16.96929930803849    3.43901247759549
C        11.18498761611213   15.64886668206400    2.92826418187757
C        11.29522297631435   13.87695628452994    6.52406842334981
C        12.64971401538845   14.04073025952264    6.25996093645752
H        12.99375821504389   14.10843386865295    5.23807040449530
C        13.57462671138417   14.11156510864639    7.28848113435545
H        14.62291939045481   14.23697596500972    7.05834006945043
C        13.16675771419002   14.02250793596241    8.61113785286235
H        13.89325776530391   14.08177850680002    9.40795282515056
C        11.82990752140876   13.85685002017316    8.91319917422524
H        11.51881664956318   13.78957706287727    9.94447012718081
C        10.89395859546167   13.78288056827624    7.88288371989245
C         9.47404194493740   13.57652601099371    8.02309827533377
C         9.10887752451559   13.46120173436082   10.45999499113492
C         9.45388355610984   12.29546569469930   11.13360915446173
H         9.38377237889212   11.34601904242257   10.62462642807218
C         9.87967905288187   12.36910635551312   12.44783215459563
H        10.14783913501574   11.46595228270546   12.97461338059614
C         9.96351267941824   13.59670249245271   13.08482946747421
H        10.29646978743155   13.64946083835024   14.11024877927057
C         9.62251445275126   14.75665599052660   12.40829011186045
H         9.68959325303788   15.71283560393440   12.90448128032059
C         9.19528899402331   14.69482217030976   11.09378886702987
H         8.92793785857432   15.58991484269102   10.55300907425813
C         7.40274914403789   13.15062520864217    8.64677640958826
C         6.17093167955230   12.93696550209475    9.32839824388733
C         6.04727483116698   12.95972464736687   10.72496195749712
H         6.92003378863641   13.13213756258712   11.33370338735289
C         4.82930066992631   12.77671342728387   11.33187296905994
H         4.75217588950419   12.80047825877648   12.40869774894885
C         3.69614548745154   12.56844175559564   10.55247628586336
H         2.73462624348103   12.43118857096384   11.02468813883934
C         3.79697029805522   12.54046347053740    9.18175678222731
H         2.89685320471208   12.38391255340512    8.61002039689492
C         5.02131857566107   12.71581121560447    8.52139200795814
C         5.12022750980460   12.66594036822844    7.07297383064128
C         4.02104360384889   12.38017686264100    6.24884847852035
H         3.04957366618885   12.19869719707602    6.68009484065947
C         4.14351377499084   12.31653025678981    4.88069159269680
H         3.27461245985098   12.09828708831198    4.27659164691027
C         5.37733869106522   12.52179535716217    4.26781581376206
H         5.46560782076762   12.45828537321716    3.19350959858503
C         6.47560921724984   12.80169953724305    5.04059875007003
H         7.44574653596490   12.96013940073871    4.58772107961855
C         6.36036386081464   12.89330304683033    6.43133856262420
C         7.48383633192965   13.18190197070141    7.25789627057399

