75
CSD_code = DICPPD | q = 0 | S = 0 | Stoichiometry = C38H30N2P2PdS2 | MND = 4
C         1.90501057738294    5.21035333676446   -2.92935817355922
C        -0.02694266798544    8.27375434143408   -2.13424011434848
C         0.61865899249413    7.60884345998883   -1.09391450428700
C        -0.11746584172442    7.05690658627681   -0.06487028199120
C        -1.49996611216457    7.16644508251914   -0.06940465707671
C        -2.14365629311969    7.82598796613343   -1.10311945515130
C        -1.41251420592494    8.37607604842271   -2.14187247120038
C        -0.08596102961433    9.85757794289977   -4.54790170345618
C        -0.34315068667636   11.21573558861632   -4.42880711240171
C        -1.15202561296087   11.84067305851999   -5.36342768150585
C        -1.70109679671992   11.11796221590864   -6.40865687330138
C        -1.44270573170905    9.76073410394743   -6.53265211931405
C        -0.63128753828561    9.13201133637026   -5.60922929860481
C         2.13475407312389   10.03789506281430   -2.61844092134021
C         1.69022952665781   10.90617311938436   -1.62532432730745
C         2.59322366786622   11.74174383856857   -0.99429079851596
C         3.93558394800200   11.70501869666599   -1.33985296920350
C         4.38354398902760   10.82538328582096   -2.31231995956762
C         3.48549967908918    9.98887417562063   -2.95033853854115
H         1.69836415762312    7.52140471640533   -1.10919004945674
H         0.38356613146168    6.53148336320677    0.73392193757461
H        -2.07683339595942    6.73081336444069    0.73283833966467
H        -3.22091256999653    7.90770697714488   -1.10477276585855
H        -1.91307539328957    8.88414197158929   -2.95538687617919
H         0.10335886378969   11.78460315668866   -3.62569805183880
H        -1.34254119909391   12.90059379312190   -5.28192077459070
H        -2.31830908366314   11.61581949919450   -7.14124067142922
H        -1.85835709205035    9.20411678132104   -7.35959161093724
H        -0.39290983253433    8.06416410673788   -5.70566016190520
H         0.64538157743806   10.91282278774818   -1.34438307444987
H         2.25176199383612   12.42116421599637   -0.22710568499960
H         4.63551037248921   12.36000322541698   -0.84255704191665
H         5.43181061665536   10.79249113455035   -2.57005231317418
H         3.81961096627068    9.29070138560332   -3.72076189281975
N         1.57931067206564    5.91758843943100   -3.81576633756900
Pd        2.08467720875724    7.49227455861512   -4.90684995829380
P         1.02055005848933    8.89647081166590   -3.47643500785366
S         2.22185799904098    4.19843180226149   -1.76169770788225
N         2.58982437085506    9.06802687450180   -5.99654145618941
P         3.14955604227730    6.08928161357096   -6.33665200950883
C         2.26166562362872    9.78005829586952   -6.87826830616876
C         4.19812805065791    6.71315309554156   -7.67747033775939
C         4.25496635980210    5.12728894962021   -5.26482768078398
C         2.03667276417413    4.94774326496195   -7.19621261132109
S         1.94193357332718   10.80068383172198   -8.03750086985831
C         3.55351632096126    7.38300620087063   -8.71523884266345
C         5.58340907029610    6.60703298126727   -7.67120838979411
C         4.51120129038133    3.76893829260946   -5.38398100435099
C         4.80006029654580    5.85221183723223   -4.20295995760587
C         2.48240293779683    4.08120542160945   -8.19032078332457
C         0.68590733880140    4.99440003115041   -6.86408470548394
C         4.29034288603073    7.93634428797505   -9.74302177050816
H         2.47404876405036    7.47320674926370   -8.69883778664598
C         6.31524955031560    7.15851619738943   -8.70874646057124
H         6.08319355195664    6.09505225173850   -6.85967057592246
C         5.31888146163576    3.14319505318217   -4.44885524773805
H         4.06498451851779    3.20059895799486   -6.18763937319041
C         5.61022032977411    5.22268552549339   -3.27898733835115
H         4.56249638385768    6.92020680397912   -4.10658848538085
C         1.58056774175565    3.24507139798118   -8.82227979339986
H         3.52727286227390    4.07631546156213   -8.47122724257978
C        -0.21095052723032    4.15725291322032   -7.50295344154674
H         0.35092799408417    5.69120708896584   -6.09285367289379
C         5.67255936869326    7.82313026989236   -9.73983318778684
H         3.79013952984265    8.46568840138486  -10.53974587721360
H         7.39228443417329    7.07391352812081   -8.70817729588973
C         5.86763999499552    3.86527132759822   -3.40301850972028
H         5.50871103617989    2.08315205238080   -4.53045269079273
H         6.02561314081282    5.77880861491895   -2.45159165026958
C         0.23819707453576    3.27941962783977   -8.47651136007261
H         1.92293885584650    2.56705243831584   -9.59030356499807
H        -1.25922921127936    4.18821073550874   -7.24502879838196
H         6.25001182558951    8.25997190380280  -10.54099690933866
H         6.48381553819415    3.36678029545115   -2.66998995596752
H        -0.46081513218050    2.62397208768519   -8.97449039142811

