51
CSD_code = DICSUD | q = 1 | S = 0 | Stoichiometry = C22H26N2Rh(1+) | MND = 6
Rh       -0.46507749855513   -2.13524325009264   -2.49686009150048
N        -0.38379681947121   -3.69746102200510   -3.77021473895803
C        -0.23726141789294   -0.04088085885309   -1.98746796081819
C        -0.53923894818035   -0.74091445879629   -0.83323116862763
C        -1.88088154497642   -0.68164807148831   -0.14089352724998
C        -2.80115898676564   -1.83262497786846   -0.57947279759902
C        -2.59356017041269   -2.25593917304506   -2.01027041707951
C        -2.45388383252876   -1.41496333698981   -3.09621181319966
C        -2.56904528318935    0.09018693269213   -3.01175095324813
C        -1.20873664041266    0.77575449476630   -2.80190087894736
N         1.56122926314985   -2.24568680321639   -2.77982156448961
C         2.57612164809250   -1.65643733976133   -2.15282941417639
C         3.87148190773083   -1.66313776415668   -2.64400072303946
C         4.13643756549614   -2.30054591311725   -3.84910097145732
C         3.10127623386029   -2.95980259841217   -4.48527682286418
C         1.82751013836567   -2.93127229469058   -3.91761491463719
C         0.74365910227832   -3.76287099991586   -4.38331854609808
C        -1.37859517133760   -4.73764822136805   -3.90993521531693
C        -1.00040009063326   -5.90323501622173   -4.82759783582017
C        -1.70330987716111   -5.27323620392360   -2.51931788164676
C        -2.91447349360268   -5.92586597632859   -2.31641928490504
C        -3.23977419480072   -6.43154687640044   -1.07114130315709
C        -2.36240083133551   -6.28232938780256   -0.00939298670029
C        -1.15479907963873   -5.63571259366701   -0.20355778874056
C        -0.81998406969440   -5.13656657947509   -1.45285511905849
H         0.79713183300930    0.25163165811722   -2.16488529233434
H         0.28688988569047   -1.02640385507204   -0.17907176776458
H        -2.34457120745177    0.28389206552948   -0.33958064552671
H        -1.72641110587888   -0.75041674426030    0.93639978335760
H        -2.61397294665074   -2.70392055791391    0.05313723851970
H        -3.84901037547413   -1.55180026639696   -0.43842515854490
H        -2.93646928530078   -3.26949897434161   -2.19479160851439
H        -2.64059770970870   -1.82679775806828   -4.08841042074598
H        -3.25758624950718    0.34481979756789   -2.20667006546291
H        -3.00529469649868    0.46264047431290   -3.93928861773997
H        -0.75130869781239    0.96501395322227   -3.77655645472780
H        -1.34782314639899    1.74827394326334   -2.32042867552084
H         2.35861368637383   -1.16160175295206   -1.21603093183029
H         4.65503407343928   -1.16899127768970   -2.09339040955073
H         5.12972588383755   -2.29785943304625   -4.26898945222944
H         3.26302978663122   -3.49663530718970   -5.40634869909363
H         0.96449395659866   -4.50099716846793   -5.14708611216329
H        -2.28853098553546   -4.26812218653399   -4.31013245249455
H        -0.84571046361818   -5.57204226890975   -5.85231858901359
H        -0.10900895906673   -6.41113931277399   -4.46497431621501
H        -1.81554436903087   -6.62133292742106   -4.82872308189105
H        -3.60920874193487   -6.03368942472341   -3.13689968322985
H        -4.18091657281938   -6.93943303065776   -0.92944933184660
H        -2.61881413862199   -6.67196407605783    0.96324160248067
H        -0.46346364259885   -5.52329197842941    0.61772045624418
H         0.15048627994896   -4.66570530096573   -1.58619259483735

