98
CSD_code = DICTOA | q = 0 | S = 0 | Stoichiometry = C46H43N5OP2Ru | MND = 6
H         6.35564304697453   11.38093191876520    6.86282837272804
C         6.03877418163025   13.12099342130993    8.50898520664238
C         2.97489781047855   11.61147277488800    5.03961148040007
H         2.35967224052669   12.14480887033224    5.75224165291623
C         2.38766288576098   11.12300120612678    3.89909943325744
H         1.33724366736790   11.29978488436969    3.74148409493661
C         3.15910815177615   10.42454549255221    2.95493539806252
C         4.51011729263958   10.24074185497336    3.29905096697310
H         5.17546545733768    9.68537273279303    2.65935652104970
C         5.00276857153364   10.77683654156742    4.46194373166489
H         6.04567163972712   10.63638828015093    4.71446758514379
C         1.24108281379627   10.06448985122023    1.44598929671533
H         0.97579425777166   11.11203251651835    1.25160094369467
H         0.60416554486955    9.68905186417297    2.25153141045466
C         1.12055321915640    9.22651322114244    0.17531705414813
H         0.95521567633469    8.17929273575922    0.43107693133119
H         0.30843027435198    9.56179188544445   -0.46559168658217
C         2.49451454689756    9.39650878222494   -0.46757797903090
H         2.55345558102416   10.36224125103137   -0.97086418323203
H         2.72632815035439    8.61349533697580   -1.18586029424314
C         3.43200908742456    9.37662779294205    0.73776720870854
H         3.72319982356243    8.34834106980027    0.99026552152585
H         4.33840317342095    9.96335694153080    0.56723290047635
C         3.18997642960049   11.40001924688296    9.85245332333333
C         3.17825538986963   12.74765979293885   10.18869555230078
H         3.68520278788725   13.45691036748254    9.54872303628459
C         2.50206257606511   13.17665636712529   11.31825250457075
H         2.49357858534367   14.22651526093678   11.57251054970727
C         1.83814345976579   12.26343358813855   12.11875287253465
H         1.31100819371014   12.59763679490749   13.00056376576759
C         1.84760006903735   10.91683920495348   11.78740988781040
H         1.32869353614799   10.20294980473083   12.41104218320761
C         2.52179346596748   10.48370168737421   10.66220515845810
H         2.53075574100988    9.43283412338196   10.40830546157754
C         5.12348823655080    9.53807220970892    9.21393516554417
C         6.34371505734975    9.93234878064279    9.75344018252369
H         6.67587524423325   10.95117722277031    9.60473793046934
C         7.12594554013570    9.03275996321031   10.45302388345874
H         8.07189455709754    9.34920587790631   10.86756839164679
C         6.69696144021114    7.72600644681613   10.61985318402188
H         7.30697181358565    7.01959310706114   11.16368073493821
C         5.48441337900961    7.32600872788539   10.08447806301212
H         5.14727476858858    6.30687932426720   10.21074194775018
C         4.69655915410560    8.22565477604430    9.38788603187521
H         3.75451736476512    7.89609003068326    8.97099952124605
C         2.89373751058762    9.84312701804724    7.48962152154657
C         3.35792199322701    8.88623290643713    6.58705192683856
H         4.42182361285871    8.68960620857219    6.53044954126133
C         2.47228034391513    8.20927204663089    5.77198970984823
H         2.83843859759189    7.46934471464416    5.07425491440845
C         1.11511888056252    8.48501880938863    5.84476955671618
H         0.42159296608340    7.95561465534353    5.20708671217125
C         0.64899860957722    9.44000085439461    6.73253369269575
H        -0.40803495270594    9.65816158294962    6.78576097313168
C         1.53360552173686   10.12468729066329    7.54812238610418
H         1.17230737160139   10.88303234053845    8.22943772878316
C         5.67873838328109   15.67203452997109    5.77874292623688
C         5.46110419744848   16.52860922156098    4.70572794958125
H         5.53587580364706   16.16657657978844    3.68979250682850
C         5.12549020573154   17.85084681348735    4.93452365006693
H         4.94498728738273   18.50735352738462    4.09536456446791
C         5.01079089842965   18.33149172893533    6.22733420435959
H         4.73633759249396   19.36212081414647    6.39861256074487
C         5.24100837301980   17.48646474458268    7.30002190804352
H         5.15086924029721   17.85517380291591    8.31144469404281
C         5.57534098358960   16.16480750819368    7.07620095341383
H         5.74192408555692   15.49466950520967    7.91026876665420
C         7.97671850372858   14.17120209466684    5.65230477023405
C         8.57006301013512   15.10481919815300    4.80544317747754
H         7.96010969600715   15.66124719293907    4.10708197074380
C         9.93368366348097   15.31947005448474    4.85781407615893
H        10.38973122554784   16.04305699783444    4.19741674946103
C        10.71563521132220   14.61285034796799    5.75905634216685
H        11.78110145645442   14.78657524402951    5.79993024635887
C        10.12954777686523   13.68769792536630    6.60547637201152
H        10.73645247573806   13.13679350363488    7.30911062578890
C         8.76383703432794   13.46606633242699    6.55278711179273
H         8.29431986857168   12.73795362453684    7.20156584629039
C         5.86630907809717   13.58354447747438    3.84646490139073
C         6.82502429309419   12.95562994337371    3.05740319026544
H         7.80183710008013   12.74392032805504    3.47087749020684
C         6.53168029157293   12.60689853788264    1.75113315182124
H         7.28550366938999   12.12944905822600    1.14105105000373
C         5.27578560139522   12.86447054872642    1.22740047136740
H         5.04963958904548   12.59440244438486    0.20521063534532
C         4.31062666171839   13.47340576516880    2.01375360536614
H         3.32825732553893   13.67330463290713    1.61023804921373
C         4.59887929253943   13.82998217388846    3.31765123354370
H         3.84095086777722   14.30939008484376    3.92580538536760
N         4.27102375684669   11.47613083281717    5.33697724527897
N         2.64066904783683    9.95393181451382    1.80552201962451
N         3.53101909726935   13.63362376064246    7.18607412997143
N         3.06134295636380   14.37649854474443    6.41939575945653
N         2.50453445675072   15.10141399055622    5.73495578779209
O         6.59970787340337   13.55526868401629    9.42519417199436
P         4.12852452221045   10.83425219430058    8.38854999409843
P         6.16647780249012   13.91479936824855    5.61507282694111
Ru        5.19978540378387   12.38162916261380    7.05831736462640

