98
CSD_code = DICTIU | q = 0 | S = 0 | Stoichiometry = C47H43N3OP2RuS | MND = 6
Ru        5.57863697367830   11.11148206469189   18.93607749495296
H         6.70360880744037   12.14613783989548   18.77758505252971
S         1.49156965183986    8.85016371484444   18.41557872076787
P         5.84228324924464   11.19358358336422   21.22386559364627
P         5.13773731420359   11.11350700369674   16.66031456027626
O         7.55250340183662    8.87367939000976   18.74646588670547
N         4.22827015626798   12.78162785036263   19.12231355722537
N         1.56642494051817   16.00084314784228   19.13106702664789
N         3.96034931324938    9.86936762675602   19.11379004660766
C         6.77037547317445    9.72348233449456   18.80427569073289
C         4.61411678720144   14.02116396361332   18.79934603768963
H         5.65123229214424   14.14305156630640   18.51669033594893
C         3.78418636359879   15.11352251809660   18.80658185660071
H         4.18755238882622   16.07491417283983   18.53620368961936
C         2.42971911564094   14.96918407201462   19.15635775034189
C         2.04361065321687   13.67336741637924   19.53828814730862
H         1.03277051607431   13.45898882076134   19.84199594947592
C         2.95450169088942   12.64665698549840   19.50498160360060
H         2.63305212954011   11.65173034189565   19.78428702863234
C         1.87839476020300   17.30287151919118   18.57648888487988
H         2.43281693761739   17.20187629215130   17.63981156040105
H         2.48718541931519   17.88244072362747   19.28278361263557
C         0.51222147167917   17.95398876622067   18.37139241261924
H         0.55882339672782   19.03936543801782   18.42041825865257
H         0.10182172421637   17.66470581198692   17.40331276285621
C        -0.32123590567395   17.34274892185053   19.49439105295200
H        -1.39122559342574   17.40570262048004   19.31076121789026
H        -0.09802111170111   17.84085751107481   20.43844464528365
C         0.17716414749235   15.90035410558680   19.53167500469146
H         0.09208756335389   15.45978939926317   20.52847271640952
H        -0.38243852430604   15.27380186767921   18.82480335872265
C         7.52432167848988   11.10183885038809   21.94068328158899
C         8.64088507719213   11.08686274514046   21.11435711836779
H         8.50221944866229   11.14365362746760   20.04284661698161
C         9.91115657568321   11.01278720339767   21.65958518459228
H        10.77420032080418   10.99763280765917   21.01022095013535
C        10.07538042905597   10.95668005665581   23.03289159962370
H        11.06619373049171   10.89593274362769   23.45880762852162
C         8.96517280188389   10.97917987489020   23.86252145886001
H         9.09061157857238   10.93843703076307   24.93493727144647
C         7.69550921881771   11.05011663089532   23.32187094555598
H         6.83329090221615   11.06258877029658   23.97293959032835
C         5.03733517914425    9.89175267324431   22.22150199904840
C         4.47401676824172   10.08812610121050   23.47883120527942
H         4.45674120917076   11.07272102560702   23.92625556824766
C         3.92347731230553    9.01946905337414   24.16424261324360
H         3.48126710058381    9.18039676070193   25.13736945197398
C         3.93516886469547    7.75051591208763   23.60989660521800
H         3.49571499478973    6.92289195862317   24.14716953671893
C         4.51056214027013    7.54576912050887   22.36664578771476
H         4.52452283841242    6.55742113811762   21.93166643356228
C         5.06080187521243    8.61014697668416   21.67806449414972
H         5.50493325789975    8.45970042968544   20.70190165709723
C         5.25053689704503   12.75969363790397   21.94152196296433
C         3.91013726226185   12.94964181436904   22.26802712597807
H         3.22028289938812   12.11837868871753   22.21389167343169
C         3.45961231337694   14.19803238116318   22.65727559871426
H         2.41887211113180   14.33561488067436   22.91487954740712
C         4.33479406213530   15.26985505069142   22.70954961498358
H         3.97893279095861   16.24435817677092   23.01125593284798
C         5.66639748886107   15.09095523830882   22.37065235833543
H         6.34955188214793   15.92733118492561   22.40467891232118
C         6.12197512561316   13.84489338640750   21.98294859597837
H         7.15720587998508   13.70173057093699   21.70338360212400
C         6.50122294429543   11.20956274219127   15.44965429020993
C         6.22591374588393   11.24956592955748   14.08467482950141
H         5.19966445265934   11.25707365925812   13.74386988477987
C         7.26154032932387   11.27998400736220   13.17096770343341
H         7.04469835799634   11.31404466180558   12.11299550169897
C         8.57713482576622   11.26129356535580   13.60917129117598
H         9.38404141841652   11.28108825908852   12.89123588491897
C         8.85475656367473   11.21450903369808   14.96454932166749
H         9.87917632910260   11.19666059929275   15.30667318206191
C         7.81986810331543   11.18856741186588   15.88390602918619
H         8.01984398103084   11.15928314470709   16.94744159264176
C         4.28998944842909    9.64825266726354   15.96931556463575
C         4.74034509018357    8.40739109801362   16.41059698213509
H         5.52956175965620    8.36509518254684   17.15052723872175
C         4.17110275529019    7.24362242602149   15.93162936210559
H         4.51656039538436    6.28643042890050   16.29390321606365
C         3.14741727600995    7.30767712106691   15.00088147684734
H         2.68703167252804    6.40040807935975   14.63830842792064
C         2.70906105882675    8.53766874614262   14.54262560962549
H         1.91035857702473    8.59141411765324   13.81665234894485
C         3.27804038623379    9.70591680307350   15.01775998033615
H         2.91611901734198   10.65850018585909   14.65580925052970
C         4.05617125802718   12.48396621213317   16.14375145805184
C         4.57149961963881   13.64733506468204   15.58182374953148
H         5.62785868628173   13.70980413872829   15.35814307469446
C         3.73525677724319   14.71531268490277   15.30851110723956
H         4.13960456425792   15.61276352371086   14.86205707229198
C         2.38508965339727   14.63706369537433   15.60679485500850
H         1.73310685010213   15.47087422022967   15.38744301975383
C         1.86970578643715   13.48819933599192   16.18587790478317
H         0.81780288987604   13.42511440738189   16.42523880879208
C         2.69959813315217   12.41810048838617   16.46057926365393
H         2.30124097415368   11.52241927097464   16.92074967240073
C         2.92173879929082    9.43257319516022   18.78628760402822

