118
CSD_code = DICVIX | q = 0 | S = 0 | Stoichiometry = C44H67N2NbO2P2 | MND = 6
Nb        4.21360641762258    3.64305562414678    4.94135479427260
P         3.74181385148370    4.65247057807037    2.56473542999986
P         4.24785547409546    5.18447557953908    7.41923816616803
N         5.33648385522010    5.59723924095088    4.75479198464364
O         5.35224138097156    2.71087128403567    6.05394000849445
O         2.52072276943654    3.65303492273398    5.13358766537169
C         4.28879745168745    6.35999158100156    2.72917503602439
C         5.10307101400977    6.59829034265543    3.86226614453508
C         5.56422321595826    7.92217061514583    4.03156587179498
H         6.17138665329988    8.16693757250368    4.89193259462811
C         5.23995436928636    8.91526712070076    3.13793279150388
H         5.61131107313279    9.91624203286814    3.30994765500759
C         4.42989451386417    8.67238438672046    2.03004388656234
C         3.95828973991775    7.38315082530498    1.84974343603404
H         3.30860943800264    7.17267022627012    1.01141571019074
C         4.09211551584264    9.77337746676794    1.06953882222467
H         4.95578979335319   10.01465253667958    0.44828303668881
H         3.80591750154185   10.67693727530133    1.60519696909323
H         3.27361981250489    9.48026752619782    0.41629303262986
C         5.95169852453069    5.75577892780220    7.09781689001252
C         6.29462658097323    5.83318493612598    5.73478369073673
C         7.60862162076596    6.17248918746289    5.39398500629695
H         7.88108948444211    6.22027583730264    4.34749542392643
C         8.54257673641804    6.45129817497510    6.37024826901534
H         9.55207555028430    6.71034049490855    6.08149062798905
C         8.19976075215239    6.41770630213782    7.71710778632237
C         6.90280981450035    6.06116370345829    8.06174546851329
H         6.63610942148562    6.04386760562925    9.10849181077806
C         9.20832162857257    6.73219234422727    8.78132661695458
H         8.74185563526584    7.25524241702331    9.61384920070725
H        10.01139587563701    7.34897599239478    8.38445471615168
H         9.64760783551578    5.81146337482484    9.16803539217217
C         2.00641562784032    4.76592163552816    1.90439864740976
H         2.02441874313764    5.28530771852634    0.93884858591574
C         1.17784071201149    5.55212110991353    2.91400818945623
H         0.13493584701195    5.59082874053673    2.60422926109073
H         1.54838375998537    6.57002298198604    3.02352607657515
H         1.23954400767054    5.04794055272656    3.88049976546343
C         1.43640840299522    3.36170138983272    1.73835342892946
H         1.42249813958992    2.87170222791405    2.71327328302216
H         2.02896364822075    2.76869018520896    1.04289521226529
H         0.41559121259853    3.41085304663866    1.36174826406857
C         4.79178188238418    3.99563996147485    1.16011135046891
H         4.52590407005801    2.93600696319802    1.05409203234049
C         4.60081498318921    4.70706668901534   -0.17420989950494
H         4.84653574516560    5.76297693530073   -0.08445594764940
H         3.58123732564858    4.60928843671979   -0.53910644068100
H         5.26535636613351    4.26794550449912   -0.91721779961358
C         6.24619038384976    4.08418841890120    1.61780512827913
H         6.90404631882415    3.60737179389069    0.89266937249548
H         6.37683784850273    3.57633781301820    2.57681029734035
H         6.54682489058213    5.12724246021459    1.72379164316569
C         4.28633677299231    4.69451324217959    9.22947806441044
H         4.57720928328315    5.56078266743651    9.83599347057536
C         2.88177244448371    4.24117854621599    9.62789632598577
H         2.49825267964034    3.53223185898309    8.89384567449889
H         2.18803148286488    5.07659950966939    9.68981925600800
H         2.90453739231995    3.75383213543550   10.60183738299691
C         5.27172596361740    3.54935469572945    9.44647882563533
H         5.31839894161523    3.28551403326405   10.50333006873746
H         6.27600219069076    3.80429336551331    9.11423997799169
H         4.95139713692777    2.67113382506095    8.88984120201537
C         3.28478029314489    6.80048168115994    7.51864364650656
H         2.52431411248784    6.62607266228848    8.28784701871398
C         2.56493223292430    7.02956021804861    6.19177972065436
H         1.79017651647506    7.78789933857445    6.30034029289138
H         2.10429269915146    6.09859680150812    5.85496756875181
H         3.26240181191624    7.36604057084096    5.42653576980069
C         4.12583849664144    8.00577889949826    7.91942889180059
H         4.87877556799481    8.21845541074251    7.16310899371040
H         4.63085281688055    7.84112944269816    8.86934031413928
H         3.48808048877401    8.88333178410010    8.02011712131537
C         5.83435211159735    1.66486016992774    6.69356446629640
C         7.22994283600717    1.56932758059715    6.89727140141219
C         7.75556576368265    0.42903067222899    7.47751108650503
H         8.82227642418690    0.33895795942122    7.61493960963844
C         6.92887904227468   -0.60255087982279    7.88721194313087
H         7.35215545364293   -1.49508820625581    8.32341274155340
C         5.55849053517175   -0.47503879482718    7.75894465256199
H         4.92126155744825   -1.27175646955723    8.11259045653362
C         4.98215141377698    0.65051385559294    7.18734278835998
C         8.08257332998499    2.74713694718496    6.48299950482900
H         7.45566015200392    3.64025496452765    6.59036917974887
C         8.49217470043170    2.64305603660076    5.01095490923562
H         9.21950576098184    1.84555260968309    4.87552800891618
H         8.93913237102917    3.57916043859340    4.68004040863832
H         7.62492822759996    2.42693976072184    4.38696792930746
C         9.31534385280915    2.93803737514482    7.36359668062118
H         9.04015041676221    2.93000112280141    8.41652202017892
H         9.78044850752390    3.89432695235383    7.13344388629577
H        10.05034588602122    2.15546665233326    7.18927301168582
C         3.47558791518610    0.78539100218270    7.11841537270629
H         3.22602264786548    1.81549951252716    6.81618634880100
C         2.88094492442505   -0.16027266858016    6.07057762486823
H         3.26786941403593    0.08926148964855    5.08438037798766
H         1.79837406429078   -0.05464120147080    6.05281990277428
H         3.12888733678097   -1.19524731604574    6.30032353569098
C         2.82857354951389    0.51259160578475    8.48124098630231
H         2.88680474366598   -0.54358343464057    8.73509338359496
H         1.77824666566867    0.79410278555654    8.45107577605024
H         3.31636812562921    1.07888017401206    9.27114552840591
C         4.26285608011361    1.84879749802655    3.60850410640694
H         3.37473286408623    1.66162382507957    3.00896975748062
C         5.25313890006644    1.04693028333548    3.38602397916983
N         6.24106068495518    0.43467248950999    3.01463259727395
C         6.72071470011934   -0.89043846014971    3.31976816680500
C         5.78204299535368   -1.65036217075016    4.26002909234741
H         5.68573161416487   -1.11564242721238    5.20195641448085
H         6.17556499065804   -2.64425538697693    4.46016291365423
H         4.79511811674383   -1.74701272009827    3.81137168932358
C         8.10848425924819   -0.76898332604890    3.95370284074359
H         8.75697464723298   -0.16924230243169    3.31942071541011
H         8.54946688283548   -1.75553117483913    4.07564581324575
H         8.02993862335413   -0.29836466039845    4.93047403787091
C         6.82914448659466   -1.62132407331983    1.97463756419627
H         5.84804519837560   -1.70490328395571    1.51213373754227
H         7.23483148006655   -2.61930908233981    2.12014062199825
H         7.48084320390146   -1.06882701353095    1.30242845608847

