63
CSD_code = DIDDAW | q = 0 | S = 0 | Stoichiometry = C28H32P2Pt | MND = 4
Pt        5.79037455103294    0.00001480091067   16.29227699409455
P         5.68761415828542    0.40666545482339   18.51597298266134
C         4.19449506838204    1.29849105633297   15.96582292973682
C         4.37958786618735    2.67761417474773   15.84265468846895
H         5.37812881895300    3.09792059910819   15.91301544236134
C         3.32158798097244    3.54635558714391   15.63267706998871
H         3.50621679879704    4.60908549829173   15.53816190928069
C         2.02900829674956    3.06039229483084   15.54586587670189
H         1.19945368204843    3.73544643963401   15.38449076047161
C         1.81152712584690    1.69949470677517   15.66852355563424
H         0.80499062208590    1.30553265387706   15.60375665046814
C         2.87833142559495    0.83956530041304   15.87111351710984
H         2.66825928727871   -0.22267366573564   15.95397895143432
C         4.88938059029676    1.92589110701576   19.16775729114460
H         3.89967782913938    2.02265558009351   18.72525992723657
H         5.48365480706795    2.79161426765577   18.87825334110704
H         4.80743101992836    1.88606326610875   20.25319869645793
C         7.19873421083301    0.34165194061199   19.55404538403615
H         7.69583433813950   -0.61369620765509   19.39669629796945
H         6.95676119084085    0.46660011473717   20.60838711932360
H         7.87225103741189    1.13930533304150   19.24222994880188
C         4.64277854250390   -0.91265060211702   19.19994253521351
C         4.06236930163507   -1.78497976705797   18.28550544663073
H         4.26983237069349   -1.63262802900052   17.22515061485079
C         3.24906271453366   -2.81512748965721   18.71847379962085
H         2.80052653623819   -3.49128422158676   18.00505170729873
C         3.01036989904194   -2.98028605572604   20.07319799579349
H         2.37681563640337   -3.78470452908278   20.41728315330771
C         3.58423186972724   -2.11364384534295   20.98919793387676
H         3.39630335288875   -2.24409804047789   22.04530365515968
C         4.39744452956495   -1.08144973065605   20.55681602786471
H         4.83972223010045   -0.41085634082877   21.28037413421219
P         5.89311003259028   -0.40668937084645   14.06838129692799
C         7.38623556818582   -1.29843273223798   16.61888225459960
C         7.20118258608251   -2.67758419884451   16.74191945894698
H         6.20265334657992   -3.09791899928251   16.67152553496124
C         8.25920558366622   -3.54631099982231   16.95184866792137
H         8.07459634138439   -4.60903771244846   17.04641511946148
C         9.55177389345114   -3.06031686904781   17.03865807905138
H        10.38134032491714   -3.73534927010368   17.20006295917534
C         9.76922306297561   -1.69940897430082   16.91601271852231
H        10.77574998658453   -1.30542370072626   16.98076676280979
C         8.70239460735532   -0.83949195649547   16.71348872840326
H         8.91245357485895    0.22273013300561   16.63049038422232
C         6.69136737566868   -1.92595925445335   13.41674416624289
H         7.68106903147151   -2.02271871297495   13.85924726534761
H         6.09706390873438   -2.79164889235109   13.70628750701299
H         6.77330497657261   -1.88616302273487   12.33130542941376
C         4.38192114667222   -0.34165808559768   13.03042603532312
H         3.88483383659599    0.61369866538389   13.18778064803718
H         4.62387720356750   -0.46663675389058   11.97608748144498
H         3.70844177808721   -1.13931832147814   13.34230547736713
C         6.93792973795283    0.91265097587875   13.38446921325644
C         7.51836738621702    1.78497155825897   14.29889810126820
H         7.31091870292319    1.63263011810617   15.35925731328263
C         8.33169309904664    2.81509493607800   13.86590655471309
H         8.78020502282954    3.49128849243187   14.57931052525281
C         8.57036342114034    2.98023187566911   12.51117617025445
H         9.20388118266691    3.78466724083408   12.16706776882798
C         7.99647038851826    2.11359076217586   11.59519412558753
H         8.18438069416791    2.24402451615879   10.53908340164054
C         7.18324828750750    1.08141956899874   12.02759813273902
H         6.74098622182264    0.41078733343947   11.30406637967359

