51
CSD_code = DIDJAC | q = 0 | S = 0 | Stoichiometry = C24H22N2O2Pt | MND = 4
Pt       -0.39838359283789   10.83197452162224    0.96194094762014
C         3.18319199374365   14.18380998908867    4.72978002569103
C         3.17871104349731   15.30758745244484    5.54375359921366
H         2.27961592999470   15.89361583692184    5.66246297721214
C         4.34505122603417   15.65914044965619    6.19502101083391
H         4.36264464527359   16.53068819477823    6.83262937879423
C         5.50552402283912   14.90556633390778    6.04078129157179
H         6.40362255509382   15.20658619383097    6.56022542746694
C         5.53483652079164   13.78226932859796    5.23538749209849
H         6.44564014633781   13.21294732596556    5.12371128181584
C         4.36648756300198   13.42071552601247    4.58066009981615
C         5.08567419697358   11.38986316822738    3.30019512343228
H         4.56928358468358   10.44034737266649    3.13547352306224
H         5.82085595265564   11.24465743510991    4.09635408222373
C         5.78212387247122   11.83454814051951    2.01452460515909
H         5.04900534871038   11.97807566885580    1.22464408477754
H         6.50023077422662   11.08350212179940    1.69602398411014
H         6.30511316331456   12.77440936362818    2.17534578795405
C         2.81773406743931   12.42664963874451    3.31488769344520
C         2.12896141970738   11.59042197005275    2.44262570002812
H         2.61397872345652   10.74595804184898    1.97660417938052
C         0.80008057038997   11.85660284259007    2.16925785146290
C         0.16810610245038   12.97678314275191    2.78311473989991
C         0.85666713062924   13.81882465014717    3.65095289257065
H         0.37878721166441   14.67012539593659    4.11192233794291
C         2.18624940054126   13.54520022395045    3.91682820496581
C        -1.22390354031738   13.13417286787698    2.41209079411557
C        -2.08527076138309   14.13402484340385    2.86637422870546
H        -1.71993747182382   14.87696975018380    3.55635904312874
C        -3.39524632704814   14.16765372225461    2.43356529512525
H        -4.06840381408400   14.93731740118150    2.77982362553010
C        -3.83280630674595   13.19261047490252    1.54476725409230
H        -4.84814742360255   13.18304618887474    1.18277834406443
C        -2.93786730725477   12.22656290363045    1.12836373408544
H        -3.23567298467766   11.44944140245198    0.43714483371673
C         2.07561044521295    7.63768768488877   -0.59014133727680
H         2.37345668614977    7.67073729967347   -1.63559846456029
H         1.86182526839873    6.60419230948783   -0.32859662496231
H         2.89116850774654    8.00485720086048    0.02656594726255
C         0.84550202819672    8.49765516553260   -0.37399014455131
C        -0.30413838456541    8.13062132992981   -1.06878315872853
H        -0.24036152252157    7.26373501023850   -1.70881851849320
C        -1.53510576450179    8.79323565479170   -1.00604028093220
C        -2.65848636295310    8.22217072884206   -1.84872600495076
H        -3.55628302129932    8.82304474499628   -1.72711531569683
H        -2.86725495751827    7.19874224097208   -1.54448271724108
H        -2.37000332026011    8.21408952173821   -2.89752128612849
N         4.11926233419821   12.35873164901402    3.74116673801170
N        -1.67246163742052   12.19010154947142    1.54244517008627
O         0.99451596475626    9.47155836469178    0.42290746126844
O        -1.79438389976387    9.81156966045743   -0.31924693822154

