35
CSD_code = DIDJIJ | q = 1 | S = 0 | Stoichiometry = C7H20CoN4O3(1+) | MND = 6
Co        3.22424898676628    0.78070501135464    2.20433628714603
N         4.61513225124680    2.23091074378560    2.43699879869207
H         4.40065549793097    2.91515837343498    3.16455523516498
H         4.71936465397289    2.76504306044167    1.57516270019389
N         3.75604043089613   -0.00231330912586    3.92947267525470
H         3.27077913649833   -0.90589516015040    3.92441595760214
H         3.42062774281496    0.49679364283223    4.75637685087681
N         1.73216630749374    1.87479656238007    3.02162352987206
H         1.87864843074113    2.88534573787238    2.99177609624482
H         1.61678745930050    1.63967735706320    4.00668688141588
N         2.69821575705684    1.40664675328197    0.41450838702904
H         2.97483501424003    2.36480579034352    0.18918023140830
H         3.24403064110630    0.79818145974570   -0.20498747433431
O         2.27404752557999   -0.72054125205390    1.93290764147584
O         4.28200460887058   -0.40609821042906    1.36594930788295
O         3.35219209594576   -2.40412147958119    0.89114813723964
C         5.96137679021542    1.69092650476770    2.74271688227210
H         6.70023897369519    2.49801032539912    2.71442575463192
H         6.20569095926543    0.95692806634516    1.97377095687838
C         5.99589149502070    1.02326583675883    4.11082910084361
H         7.03162336096424    0.78903375712214    4.35340843882015
H         5.62447841873451    1.71217087364465    4.87502147186611
C         5.19303446527303   -0.27092253681451    4.13245055931803
H         5.53472844416596   -0.92438942095588    3.32820277944967
H         5.34256717743832   -0.78326557174056    5.08818149016138
C         0.41758339416704    1.61545290200389    2.38760577970776
H        -0.37351695354710    2.11487723736449    2.95577815317149
H         0.24653530761538    0.53843379052060    2.40954239625817
C         0.38884232522522    2.10460061267927    0.94586467303238
H        -0.63502444143066    2.03797748402556    0.58018851984429
H         0.68938112224814    3.15531942808126    0.89915115357712
C         1.27768416471250    1.26113889768523    0.04113015153242
H         1.00477092092174    0.20944665595957    0.14142089561697
H         1.13612453775884    1.56242036483694   -1.00171035518300
C         3.30771299709473   -1.30082028887901    1.34540995503618

