43
CSD_code = DIDKOQ | q = 0 | S = 0 | Stoichiometry = C21H17CoN2O2 | MND = 5
Co        2.27415675727318    7.76485725210962   -0.54854092457872
O         0.96607243661973    6.72120734756450    0.20539354858194
O         3.03169639130865    7.72945948179895    1.12284952483796
N         1.35873449285367    7.97109051412450   -2.14118036357855
N         3.47828737983074    9.00858633442208   -1.19788868642520
C        -0.08116322031133    6.21989148735457   -0.32073200832364
C        -0.90442518671404    5.34964741882141    0.44777874916454
C        -2.03640865440592    4.79512810824566   -0.07457573521478
C        -2.43358230550170    5.07079617690022   -1.39426107335958
C        -1.68066265160461    5.90956211312009   -2.16358516984055
C        -0.49943713865664    6.50303856923901   -1.66374143647539
C         0.23539527741738    7.38316507771803   -2.47552815675453
C         2.01891264890782    8.81381596013363   -3.03103058139962
C         1.63566623049880    9.11074511312651   -4.33859313093013
C         2.40082835823851    9.95985673291804   -5.11309473468032
C         3.56116920651318   10.51975395957609   -4.60093200995912
C         3.96134673843337   10.23597493425585   -3.31032210469350
C         3.19878614598495    9.38805978134578   -2.50765432340327
C         4.51675690873305    9.49457102216590   -0.56162638849847
C         4.89810126196538    9.16720062118561    0.75018159804665
C         6.06368593668405    9.74211717240639    1.30544873101399
C         6.44965575016686    9.46747747326726    2.58526166042635
C         5.67212131132159    8.60248176650582    3.37433778307075
C         4.53806207572926    8.02876109481435    2.87780972341540
C         4.10176539249447    8.27774845945820    1.54609741162586
C         3.31418796071133    6.27167245955839   -1.26095037417921
H        -0.59055941051839    5.14445350609238    1.45965611125262
H        -2.63926553125234    4.13210721184456    0.52928418414141
H        -3.33108056597200    4.61961924178548   -1.78885296532580
H        -1.97721934008894    6.13284590621116   -3.17946896667212
H        -0.19660285842838    7.58553910638695   -3.45282930361401
H         0.74367015678567    8.68452357191324   -4.76965231442474
H         2.09354584318372   10.18294758892245   -6.12341197178955
H         4.15911098732191   11.17803470674526   -5.21253189519029
H         4.87370335024151   10.67997159857502   -2.94484532891671
H         5.14628446431496   10.22786520078585   -1.06039105015074
H         6.65142685551915   10.40844978082659    0.68861439015298
H         7.34399273436392    9.90951506454793    2.99706812927452
H         5.98311068658262    8.39140050147600    4.38744478049974
H         3.93398540621054    7.36344577732881    3.47531374438188
H         4.16310137901051    6.09347690884970   -0.60369014553379
H         3.67430956272265    6.47720173191064   -2.26842095035381
H         2.68447677551120    5.38413616366122   -1.27750797562000

