38
CSD_code = DIDMEK | q = -1 | S = 0 | Stoichiometry = C18H15Br3NiP(1-) | MND = 4
Br        5.80686058725952    4.60585093807248    8.75155500046336
Br        4.10549435700455    1.13555394023168    7.23989695191034
Br        4.14793030179876    4.53084779119047    4.98977134580755
Ni        4.57521745977627    3.46083522306263    7.06560167291197
P         2.77848809282824    3.99063080112425    7.96425150721324
C         2.21271971343030    5.70841411999517    7.69081188608227
C         3.13343804971446    6.72132733379036    7.45162127688587
H         4.18972427230346    6.49514400276806    7.40926240598219
C         2.70414183226535    8.02127541059023    7.25749213383337
H         3.42762663515781    8.80056486925793    7.06866492766394
C         1.35271369332174    8.31897509639272    7.29638755044273
H         1.01530260077192    9.33382926211906    7.13774101045389
C         0.43069417601489    7.31266776047958    7.53349218239785
H        -0.62627078534443    7.53986828903225    7.56151520773670
C         0.85523202005173    6.01177823911000    7.73092863820483
H         0.13228074230889    5.22889149741881    7.91554407986951
C         1.29638176109571    3.05270307279394    7.44273662256419
C         1.03502459505869    2.92979770331481    6.08146744913026
H         1.71060244971154    3.36968357421657    5.36133270294409
C        -0.07776036695749    2.23712781195457    5.64495180192276
H        -0.26753743997940    2.14384946296358    4.58557432904232
C        -0.93987404067244    1.65828900681998    6.56154461100384
H        -1.80755848708679    1.11065276810829    6.22091774638286
C        -0.68351479620475    1.77663555426523    7.91656990112511
H        -1.35083191679932    1.32419984553382    8.63726816155387
C         0.42881237679238    2.46982645990548    8.35955578857481
H         0.62094212025469    2.55484213110610    9.41987464658762
C         2.73010952560697    3.84646109775243    9.78479132758499
C         3.03491557010893    2.62241131943424   10.37551827520058
H         3.27588988592721    1.76970820103980    9.75592827533454
C         3.04295950896320    2.49609665801947   11.75137604607641
H         3.28596736944798    1.54299696278227   12.19866305446415
C         2.75312567455298    3.58887019981554   12.55185373828784
H         2.76680966716045    3.49216313009629   13.62856345954017
C         2.45925004607026    4.80944425602422   11.96903892279947
H         2.24302464709815    5.66889480107841   12.58831283153487
C         2.45008806791429    4.94273089184964   10.59217807225101
H         2.23558003327337    5.90366051648927   10.14694445823508

