68
CSD_code = DIDMUB | q = 0 | S = 0 | Stoichiometry = C29H33Cl2N2PPd | MND = 4
Pd        4.27478699250876    3.79474661938032    2.43507320594378
Cl        3.00773165124299    2.59284222640949    3.80142157834746
Cl        5.95822755956744    3.74731799485222    3.97349212566141
P         2.81165002913563    3.94795196315972    0.72105878130559
N         5.86793594208231    2.77520326286846    0.23854983564831
N         5.60777883358153    4.82405116288793    1.35609829972230
C         3.54902474775764    3.14131932882931   -0.74569379181063
C         2.76455193514234    2.79054037014859   -1.84686245337200
H         1.78959663460387    3.23927676947558   -1.95866948331559
C         3.17201651218197    1.85512608487417   -2.78601555588343
H         2.52721313690786    1.62779055402585   -3.62142681258755
C         4.35489865420326    1.16032753382480   -2.61582193562928
H         4.63576705542042    0.36313371037877   -3.28608190460165
C         5.17578172530929    1.50837426167132   -1.55525661323156
C         6.43474551159272    0.97954600624441   -1.09629191875278
C         7.23099104115950   -0.08443173456334   -1.49753570401296
H         6.94355344460602   -0.70234203368183   -2.33429297428706
C         8.38986501824892   -0.33891491655594   -0.78898296010596
H         9.02199275771765   -1.16460685970770   -1.07898425260769
C         8.75075015785445    0.44099337200108    0.30679224718199
H         9.65119444030103    0.20298122784006    0.85218480529744
C         7.97390193880911    1.51018073832704    0.71600593576207
H         8.23944782235758    2.10509827285509    1.57662705754445
C         6.82105695562021    1.77304240244614   -0.00358468839047
C         4.81574269903643    2.55369725212671   -0.67212474082910
C         6.35109285286437    4.05900910661886    0.56106942829549
C         7.57724742542047    4.50033402972880    0.06420619423061
H         8.15171641561937    3.86591188234048   -0.59220198717678
C         8.04076444394633    5.74834784900410    0.43571696426399
H         8.99079759604343    6.10592840840165    0.07028931170210
C         7.26622049814172    6.52636504553312    1.28594931845734
H         7.59973924633456    7.49668394977968    1.61508626164345
C         6.05675956920116    6.02327430215352    1.72182649506300
H         5.42855705287567    6.58567581836646    2.40325705366199
C         1.10554172668271    3.21965903811782    0.74617717157964
H         0.58922560435181    3.44545828341447   -0.19547227417410
C         1.26278362303613    1.70441886955537    0.91126978953178
H         1.78894394914537    1.28251062269258    0.05064193022049
H         1.86225613421707    1.51835740126609    1.80756022794915
C        -0.09347579220956    1.02491145634298    1.06698279497887
H        -0.68866613443971    1.17445052469503    0.16112652438953
H         0.05270383672196   -0.04846762709254    1.19796244551415
C        -0.83332808464619    1.60399725696062    2.26654771152472
H        -0.24080054875277    1.43724109743942    3.16698469546901
H        -1.79812142901018    1.10834401808283    2.39119525764514
C        -1.03416816044386    3.10102837915212    2.07032000456828
H        -1.56526661764166    3.52359820627512    2.92507989495088
H        -1.64407477741754    3.27294383433152    1.17800240630301
C         0.31180014231205    3.80448948600281    1.91577752604714
H         0.89614959740547    3.67784811048386    2.83162328804410
H         0.13361394090832    4.86986680888004    1.75544186560095
C         2.68561757835892    5.75383336410980    0.27676431285672
H         3.68500344680355    5.99255291493808   -0.12230610174469
C         2.47464439934292    6.57792343245554    1.55123227300356
H         1.46244291760192    6.42531148664824    1.92789444510108
H         3.16698615677579    6.24012237083675    2.34369835269423
C         2.65830115425713    8.05908507935246    1.23703583892638
H         2.51562802556079    8.65566307093007    2.13973882383433
H         3.67264789323166    8.23854243791295    0.87072726286083
C         1.64888592363190    8.48238587069682    0.17098953656271
H         1.78789245362995    9.53649245114345   -0.07587856706271
H         0.63794027837222    8.36365358123480    0.56695635928602
C         1.79958174108570    7.63561039107400   -1.09080581828337
H         2.78375587248162    7.81482385497224   -1.53100930517801
H         1.04793307496477    7.93120744474828   -1.82543910250329
C         1.65441790460459    6.14560180379115   -0.77698271786413
H         0.64657338091191    5.95056585931251   -0.40627320889819
H         1.80453249072432    5.56629285718589   -1.69034076687442

