72
CSD_code = DIDSEQ | q = 0 | S = 0 | Stoichiometry = C22H44N3ScSi2 | MND = 5
C         3.39872599122238    3.23846886333205   15.96502739318661
C         4.16612895561435    2.32875877437979   16.65767798626735
H         5.18808578679112    2.44810807864794   16.96644928644097
C         3.34848148537593    1.20165548427865   16.87838291332075
H         3.62550976167571    0.30037856299319   17.39253502993169
C         2.12739156366303    1.48924373851757   16.31106871891207
C         3.71344243165435    4.60139914122314   15.42086569521370
H         4.53233521089458    5.05588012815748   15.99370965926474
H         4.03828454283752    4.52010623644840   14.37441393924754
C         2.24138781247807    5.90444061278704   16.81966550876779
H         2.46597676994782    5.11115935283340   17.53306325036000
H         1.18284953244691    6.16871462312636   16.90909881459639
C         3.12216440676325    7.15580336121133   17.02962507808716
H         2.57853507536417    7.91855726767547   17.58396602949928
H         4.01981038646789    6.91164311974539   17.59641747210197
C         3.47228709950666    7.62281758613584   15.60932230186194
H         4.53871186984289    7.51355624628705   15.41262227496178
H         3.20596546213341    8.66388549916060   15.43838364691943
C         2.65822641908177    6.68214329415104   14.70371726403818
H         1.66485991043441    7.10524114966664   14.52504732373777
H         3.13614475757484    6.50338004106059   13.74019954414502
C         0.83069949414423    0.73441083160837   16.29241175539948
H         0.22545876267791    1.01690458839848   17.16453139006860
H         1.01328286245909   -0.35182190755528   16.34849488656312
C         0.51340395456642    0.32510570278006   13.91630218557503
H         0.65810910941097   -0.73361922924385   14.18884761125223
H         1.46518302750333    0.71627601159218   13.54997225151451
C        -0.63086225862292    0.45130225990962   12.90293877161192
H        -0.42831100941056    1.23939242564986   12.17844018861772
H        -0.77392700065790   -0.48306990754288   12.36160437962705
C        -1.85772466226738    0.81210001177949   13.76260263516578
H        -2.70792753148941    0.15943562814134   13.57332651305237
H        -2.16001044760390    1.84343744514753   13.57202168409583
C        -1.34718633548422    0.68304767828517   15.19596663492101
H        -1.87747739299525    1.32923362491392   15.89731817741489
H        -1.42794432948483   -0.36268785973036   15.53644901685946
C         1.09255066212656    3.88661603556798   12.47929130008997
H         2.08569430868651    4.36954912045283   12.43470035012676
H         1.25683593538627    2.88521100466517   12.04616719312752
C        -1.79648852900682    4.08756415427458   11.33560137803955
H        -1.80822529989355    3.07717525408120   10.93757796300085
H        -2.48794258527600    4.67616622516885   10.74114451938500
H        -2.18449693998282    4.05133080922008   12.35121805869934
C         0.51685281724441    4.89363601583372    9.46766520210554
H         1.49789730892026    5.34762845019909    9.36281233671195
H        -0.17423505229404    5.46530797929945    8.85510424545229
H         0.57526906239332    3.89415597286159    9.04652393958073
C        -0.15860351494751    6.65585616856798   11.91230978507351
H        -0.46235463419336    6.69173678699837   12.95640297295945
H        -0.88512829330575    7.22066476349999   11.33727466438638
H         0.79445476082007    7.16868010674553   11.82575551596543
C        -1.25802324964860    4.66253958421728   15.58132279877532
H        -1.19760350713596    5.73757867978381   15.33694997297559
H        -2.15194854239309    4.31822840935649   15.03650569522906
C        -0.21889888776755    3.75810760964478   18.41849772472693
H         0.57656640357452    3.41187975191804   17.75446146425139
H        -0.55660003512013    2.90614939816871   19.00229502134603
H         0.22044604461308    4.46565137919379   19.11569085425263
C        -3.22944479580901    3.49435991782261   17.76758760814384
H        -4.08987575681441    3.87564269171247   17.22680063610619
H        -3.48050353140816    3.49592648723848   18.82390613067966
H        -3.09021582440020    2.45914839690155   17.46954171814331
C        -1.99819385521668    6.26517417940088   18.22291383365163
H        -1.15247960251521    6.93421473848150   18.08985580011644
H        -2.18177606483919    6.18159852200944   19.28994398617155
H        -2.86475380419312    6.74476364925519   17.77839520544764
N         2.48735815394551    5.43063889815244   15.44843811630461
N         2.14782767213097    2.73353151036438   15.74896013020759
N         0.05832977064425    1.08122757578731   15.09078013995410
Sc        0.61513866651011    3.69711058232546   14.70968666939985
Si       -0.03301644723469    4.84170232485171   11.30633426186480
Si       -1.66588428811911    4.55185840004293   17.42419559492475

