38
CSD_code = DIDTOB | q = 0 | S = 0 | Stoichiometry = C12H14N2NiO8S | MND = 6
C         3.70613047836596    3.62033748519830    3.31839031325428
H         3.51912349213408    3.70413861271330    4.38039058131489
C         4.50347046478954    4.56494416671663    2.66541184121968
H         4.92449728936814    5.37805575320319    3.23491562069980
C         4.74111662401541    4.44638245960841    1.31821416888968
H         5.35561816227204    5.15964171158519    0.78984695506432
C         4.16511593999241    3.36852161516443    0.62465043860029
C         4.34005393970799    3.14437168415935   -0.76914497566164
H         4.95094096364114    3.84147094129428   -1.32224296746019
C         3.75841503711857    2.08551005747237   -1.39082461270116
H         3.89916974016426    1.92484648876394   -2.44922129886812
C         2.95200970195659    1.16471734419765   -0.67177925259082
C         2.31236002049570    0.04180071929088   -1.24601857313160
H         2.42687857821440   -0.15335402444147   -2.30205217623610
C         1.56213833471865   -0.77727410282803   -0.45933152104899
H         1.05607960706536   -1.64551252634530   -0.84897662318258
C         1.41752703828171   -0.50781900579989    0.93482607802162
C         2.76248687416932    1.36277757699780    0.70588070465662
C         3.37147332001901    2.46649312512291    1.36612918257276
N         2.01437202054603    0.54919609174582    1.47697538643902
N         3.15182570936268    2.59318352927926    2.69878905223776
Ni        2.08642754273824    1.27626480101653    3.40708050547309
O         3.82172174205657   -0.12148492776795    4.09015054851670
H         4.57428465575999    0.28295941450896    4.53043034367435
H         3.21438360067146   -0.42231863104085    4.82445256364601
O         0.17003600185538    2.57724339730031    3.53763771310561
H         0.30346225542524    3.45544865050668    3.90579225021211
H        -0.10729247312181    2.01498863632204    4.30936029462046
O         2.41595517829205    2.17993423658486    5.45996594546645
H         2.75633608085945    1.38642345475213    5.91944226226038
H         1.45512132123785    2.05960154034181    5.70861380486218
O         0.69465764107913   -1.31032641298047    1.65505565906850
H         0.69178051435080   -0.98770841704657    2.62060088600336
O         0.99773155586627   -0.09453407267693    3.87582966730319
O         0.13929040177299    1.14832617366483    5.74107330440938
O        -0.12090970978072   -1.27279085403482    5.61553289759070
O         2.08018233816573   -0.30004350714606    6.01029850115320
S         0.74802801637134   -0.15861318541184    5.38895453054137

