84
CSD_code = DIDTOC | q = 0 | S = 0 | Stoichiometry = C28H49CoN2O2P2 | MND = 5
Co        3.74332087009529    1.27325139016203    4.40482890259130
P         5.61270925526845    0.12184706703578    4.62010315225118
P         2.72340562856750    2.99863424223102    3.48036451053758
O         6.71857869909443    1.14181253782684    5.22160561896577
O         3.31904830442362    4.30082421481375    4.24876793958022
N         2.29508937935988   -0.90741368530990    3.02931140549275
N         1.85255548971502    0.75480434708123    6.69315413326402
C         4.95456515241765    2.69933171153918    4.87500256357173
C         6.25790935444030    2.45406917360508    5.29593831716629
C         7.10262922262321    3.46181432622017    5.72840038131241
H         8.10390711015744    3.22392721364552    6.05547035218576
C         6.64436802666512    4.76969614134042    5.72024864577876
H         7.29005823592603    5.56525350894223    6.06030395114839
C         5.37710841746553    5.06871417323304    5.24280310605709
H         5.02906562165291    6.08938578382426    5.18608723885246
C         4.56372368672345    4.03421503342449    4.81699066743545
C         6.58057807342903   -0.65917166450914    3.21767725952384
H         6.08410390705742   -1.60846938685014    2.98483725275226
C         8.04459645493696   -0.90580476195028    3.55867898404631
H         8.58351332825373   -1.22627158745990    2.66781480650501
H         8.15979680921095   -1.67692973729965    4.31645800311608
H         8.50289977888722    0.01011025464346    3.92539793242257
C         6.45348022927189    0.27205653607510    2.01749015555635
H         6.92960624832861   -0.15371465390734    1.13480713499254
H         6.92854766502219    1.22780783224475    2.23861461347639
H         5.40140684524512    0.45289406798965    1.79672298949042
C         5.70333558860749   -1.22729837864133    5.90849719769593
H         6.70994779418377   -1.65880124013302    5.88241948529249
C         5.46076889346184   -0.62063577940878    7.28431967706749
H         5.44908080510662   -1.39668887620405    8.04939004837425
H         4.50516794215005   -0.09793255726807    7.29782218825936
H         6.24319312213110    0.09442973321391    7.52901904695919
C         4.67033866297600   -2.30020267887892    5.59387590545374
H         4.69331011595271   -3.08898514453758    6.34549586097486
H         4.85639077340603   -2.75002428891526    4.62000801088775
H         3.67612476147829   -1.85581864100694    5.58104568003460
C         2.93291907216021    3.53709564893492    1.69930152547776
H         2.39488634359936    4.47869920398088    1.54927205542924
C         4.42270504928964    3.76874060835935    1.47112069761889
H         4.62162988719111    4.00090239023808    0.42531803186790
H         4.98453230470966    2.87502971746537    1.74198632945723
H         4.78497724580524    4.59404319263072    2.08152866211369
C         2.40472296365863    2.46027555572690    0.76281903688104
H         2.65989339140373    2.69174931530871   -0.27099254738409
H         1.32354523416224    2.36780091153500    0.83532282336574
H         2.84946728342528    1.50083563418217    1.02501992642097
C         0.93100950390277    3.32140535927388    3.88767917103392
H         0.97284966569022    3.38446639688842    4.98475734131611
C         0.02948017248570    2.15324460953191    3.51344867763794
H        -0.94554446176314    2.25692923065881    3.99017856589696
H         0.48448991538706    1.21818272298421    3.83508090585002
H        -0.12742209279849    2.10666183444524    2.43821328506306
C         0.40737897646489    4.64670266835757    3.34863257727726
H        -0.53385122927802    4.90163583886207    3.83508264967485
H         0.22619778729426    4.58947479994052    2.27725254429123
H         1.12205053687060    5.44266622174178    3.54660808162050
C         2.83261016980369   -0.03854067057879    3.61071741489907
C         1.77970738354480   -1.93638035478717    2.21897858695094
C         1.17043512313517   -3.00925652713840    3.12905405893520
H         0.35831014211118   -2.58851878123046    3.71820446823597
H         1.92554406407640   -3.39959858927353    3.80833890122218
H         0.78048561124161   -3.82801644500065    2.52984070799582
C         2.92917346945304   -2.52489998497053    1.39207415741376
H         3.69269346217410   -2.93518039131191    2.04927661194414
H         3.38486031592650   -1.75311276821465    0.77579739668344
H         2.55765583317199   -3.31721970267750    0.74706095327730
C         0.70697247383184   -1.33987496733906    1.30046071571113
H        -0.08972654605701   -0.89286862722636    1.89143361232682
H         0.28292457478282   -2.11690467680777    0.66951705352263
H         1.13942851184994   -0.56866294099908    0.66706937855727
C         2.75634575053472    1.15261471645151    6.06310613417993
C         0.77456017779771    0.22171936536404    7.42714921048209
C        -0.16332541020432    1.37035648476331    7.81111841408705
H        -0.53660210363393    1.86543027283908    6.91723475538008
H         0.36628618245367    2.10343842141787    8.41558000442456
H        -1.00704065149118    0.98840288341995    8.38065352496386
C         1.33780900717885   -0.46106851550433    8.67861374606886
H         2.01712667151423   -1.26275069896630    8.39641240520824
H         0.52799253603537   -0.87856659125071    9.27180916385210
H         1.88549986669709    0.25584783554451    9.28638249106555
C         0.04803538226737   -0.79656552622066    6.54080428402568
H        -0.33761707829018   -0.30992628478419    5.64768293280080
H        -0.78062532892300   -1.24150184114994    7.08610479062714
H         0.73403260565542   -1.58395318222289    6.23602066516618

