64
CSD_code = DIDTAO | q = 0 | S = 0 | Stoichiometry = C22H33CoO6P2 | MND = 5
Co        2.40779409266597    1.51103261840663    5.03523577888158
P         1.29513020193177    1.29040544634942    3.08311010814358
P         4.33250512809622    0.90722702576614    6.02713679620960
O         0.83862917162932   -0.27283673487355    3.08640216115207
O         3.95188351175542   -0.55887193910826    6.63038324782617
O         0.94143838828108   -5.21397081642436    4.31481699574259
O         2.40098228548265   -5.26016872876196    6.01518199327305
O         3.01775422660505    4.33354662143468    4.77195019428127
O         0.51731987101557    0.64076195071634    7.11666938197077
C         2.24819593067223   -0.39626400298384    4.99388432621908
C         1.42004264522630   -1.04148038781805    4.07610745280237
C         1.23779072678717   -2.41041935038549    4.10080728923329
H         0.58480743422595   -2.89885290250931    3.39502110160916
C         1.91845040385131   -3.17200131527389    5.05113178073151
C         2.82733460069201   -2.56748583647534    5.92196594372545
H         3.40364059816406   -3.16028297876302    6.61311422278053
C         2.98649070704928   -1.19836881834389    5.86598197756203
C        -0.37954028333745    2.11566451573761    2.98949496876063
H        -0.69289901536121    2.08405671860394    1.93841528603261
C        -1.39817125261894    1.35707684934846    3.83245980630222
H        -1.53426282289894    0.34296725788243    3.46442552444409
H        -2.35932289687638    1.86746586005758    3.80111028963207
H        -1.07165429022345    1.30834239489026    4.87007582668727
C        -0.27909048356540    3.56320809345154    3.45655535769695
H         0.49377542293219    4.10638136967529    2.91783746715184
H        -0.03556946271750    3.59125839331563    4.51764747394243
H        -1.22846534306765    4.07530763319948    3.30790820458497
C         1.84230925528191    1.40092066072632    1.30447299951750
H         1.05577599110198    0.89718076638329    0.72679009316068
C         3.15065258046483    0.63553639495282    1.15189355252177
H         3.05447937013197   -0.37652608465463    1.54411439769510
H         3.94440098966091    1.15016960571298    1.69217347355017
H         3.43712288049801    0.56979241935891    0.10357708089367
C         2.00438767682594    2.84245322978914    0.84434864912793
H         1.04972126200634    3.36111408618803    0.80740290485865
H         2.44043177426794    2.86708086573708   -0.15332495816241
H         2.66945154595283    3.37980030962210    1.51917231450186
C         4.86337855054575    1.70746476243793    7.60861353588878
H         5.53292682601049    0.99493529936568    8.10476119571410
C         5.58361789190153    3.01992738114980    7.32925609345471
H         6.48718732399387    2.86515119561673    6.74367990279452
H         5.86151509846831    3.50235463217963    8.26498963697495
H         4.93125186795381    3.69592713010533    6.77968547693163
C         3.64227614926173    1.92975032762983    8.49279885514386
H         3.11713245997725    0.99154459036176    8.66282654335761
H         2.95575559788966    2.63265490295625    8.02161031890339
H         3.94255018168844    2.33513040387642    9.45768610148528
C         5.94940487547816    0.52734137879440    5.16287103009042
H         6.31461074033587    1.47637897215713    4.75624246396789
C         5.62525188098425   -0.41564503382113    4.00795840806663
H         4.78577656140434   -0.03179148523808    3.42900897290620
H         5.35276016935095   -1.39997474467049    4.38670787609996
H         6.48232459752571   -0.52761826733355    3.34607887638792
C         6.98780430028090   -0.09277126358019    6.08990571454744
H         7.39239969488728    0.63231170709453    6.79145575250497
H         7.81426065785942   -0.48741717530540    5.50042472581143
H         6.54630642939283   -0.91631632367238    6.64894398709813
C         1.68534597810508   -4.62962941907772    5.06602802475959
C         2.22017055146760   -6.66489609952181    6.08673829163885
H         2.85938830381721   -7.01370280927034    6.89392742749386
H         2.50368189852857   -7.13364916402225    5.14175510433428
H         1.17479131406851   -6.90346036121850    6.29423246637974
C         2.74605152298283    3.22341664490478    4.90510080259025
C         1.16735575324491    1.17316162716910    6.33486094963262

