52
CSD_code = DIDXEU | q = 0 | S = 0 | Stoichiometry = C27H18MnN3O3 | MND = 6
Mn       11.56817455174120   19.58216626193700  -13.22160300913836
O        13.34124885385914   19.84463170933997  -12.72031031457930
O        11.71470956490273   17.85493404517537  -13.76091763584834
O         9.64801204356184   19.68160679399556  -13.63453736085415
N        11.31808035867303   18.98093338083033  -11.38276145439151
N        11.97219121687908   20.02393102149700  -15.08390112446798
N        11.12711456618324   21.48091434284833  -12.59826263785348
C        10.25929719195847   18.52777983751017  -10.74132816205231
H         9.33317522726947   18.48951495017683  -11.29894745081051
C        10.30771619440431   18.11243105864584   -9.40400772137979
H         9.40458243970231   17.75018933153559   -8.93744568944862
C        11.48840236607599   18.16585552655701   -8.70777539883136
H        11.54765177967095   17.84781852220819   -7.67720888221815
C        12.64468571378868   18.64345502507099   -9.36104609476674
C        12.49355639414480   19.03282289188077  -10.70957012610686
C        13.59127275862633   19.52908299209616  -11.47768723743152
C        14.83149429939937   19.62984148439856  -10.85660014801139
H        15.67786070664624   19.99969761685464  -11.41472842914572
C        14.97596920063221   19.23729007500888   -9.52425096045274
H        15.95207572242751   19.31788081276034   -9.06769260775562
C        13.92389651925577   18.75731574156129   -8.78202327091399
H        14.06284064210495   18.46150004542286   -7.75334092054682
C        12.10863231277673   21.16648148382999  -15.73312164486834
H        11.99408184344106   22.07532050066210  -15.15691968135482
C        12.38759318482199   21.23280333789948  -17.10357111534424
H        12.48849473505165   22.20170739098529  -17.56829764842157
C        12.52648577635473   20.08181685616418  -17.83782916396444
H        12.74041917008780   20.11175218644417  -18.89597817508854
C        12.38263936921912   18.84005940054252  -17.18381673787658
C        12.10932217884674   18.88112460079608  -15.79965747247626
C        11.94324182708741   17.68926195593890  -15.03078156227240
C        12.05308085581380   16.46465016146930  -15.68277020366059
H        11.92784566504295   15.55016455203936  -15.12385354891809
C        12.32535758920399   16.43093687183142  -17.05142026127347
H        12.40862516033463   15.46878940364833  -17.53633395300551
C        12.48968570201637   17.57519068013899  -17.79547945441427
H        12.70087987248311   17.52034544404860  -18.85267990251875
C        11.92840366400939   22.40817273132389  -12.09076947804686
H        12.98764341891452   22.18621222141766  -12.07567470723008
C        11.45475724024558   23.62998742280308  -11.59832440037965
H        12.16450497037658   24.33595873999408  -11.19504647658144
C        10.11498879571393   23.91890019080396  -11.63296185540848
H         9.73281471233593   24.85680580932308  -11.25791165731337
C         9.22414713586464   22.96691186308531  -12.17591356677780
C         9.79927986520684   21.76001283758485  -12.64148676413595
C         9.00296408065568   20.72018490904291  -13.22247270348082
C         7.62482041430960   20.92985656217807  -13.30947577454800
H         7.00090075886248   20.16309476176660  -13.74105391078945
C         7.07142015749106   22.11672178177013  -12.84164064206542
H         6.00174740809713   22.25107121459081  -12.91924299496453
C         7.83338982061472   23.12169483229055  -12.28547911431414
H         7.37462400281397   24.03171582827587  -11.93108879150227

