32
CSD_code = DIDZOH | q = 0 | S = 0 | Stoichiometry = C13H10AgN3O4S | MND = 2
Ag        3.62451622684580    0.69543745002811    2.04321587052587
S         5.48924734891701    2.28107029910519    2.61935355103812
N         1.62859888715574    0.33464861060662    2.95067338157386
C         7.02750684470275    3.12770703350224    2.33260730427696
C        -0.69379077541526    0.27021566888081    4.49121919345583
O         4.33267814604644    3.15686012021238    2.68300837911060
C         7.45042922652982    2.68662919509933    1.09044782042118
N         5.45057427079889    1.45469547803177    1.21501515632763
C        -0.32786577683116   -0.81498189155704    3.70105254616879
H        -0.91644009322328   -1.71905349836561    3.67828516988517
O        -1.94105430865122    0.86239388883207    6.42290252570549
O         5.52667101877453    1.33657776673239    3.71896177208274
C         6.51814700382324    1.69654710907719    0.43312944444443
O         6.74109629693198    1.21084668386181   -0.65684603077452
C         8.63935952269849    3.15794112657549    0.55836798084953
H         8.96396269028340    2.81006173203925   -0.41008792178925
C         0.83635523454085   -0.73691480054370    2.95674702689539
H         1.14635156051355   -1.56371458731667    2.33310489082718
C        -1.91879718908362    0.28335567436668    5.36219540681736
C         0.14865506461956    1.37838483411804    4.50467852071526
H        -0.09675192552353    2.22321558269223    5.12889709295927
N        -2.97546438565666   -0.40213070026011    4.87051976638709
H        -3.83247803907223   -0.39424553006355    5.39946546423200
H        -2.98854128904246   -0.78532802043627    3.94279792062410
C         8.94043501352035    4.50300163271586    2.54057296228575
H         9.53050286190750    5.21377021842941    3.09950634138636
C         7.74786543996552    4.03131561033386    3.07766267942057
H         7.39518994378165    4.35835474061157    4.04328830333309
C         1.28795971979084    1.37460118746421    3.72017250304167
H         1.95907331949039    2.22769160426508    3.69899723985007
C         9.37866683195124    4.07025084035504    1.29702159553450
H        10.30864130889472    4.45039494061118    0.90066614240025

