65
CSD_code = DIFCED | q = 0 | S = 0 | Stoichiometry = C31H27Cl2N3OZn | MND = 4
Zn       -0.76531799276148    5.65184569017301   13.57752191027753
Cl       -0.79780535229528    3.94942266087699   12.16446625270998
Cl       -2.28293000556726    6.88666611640390   14.56588546808900
O         0.11457767303834    4.59851914831469   15.17643182063652
N         1.56901690553896    9.03701048423071   13.35941706676741
N         0.61430979667783    7.06838827409899   13.00298422139314
C         1.33833610574026    8.95910943642640   12.00345201731800
C         3.73925565571800   10.01940510675844   14.00608833020459
C         0.72091350897553    7.71023596105925   11.79217587968027
C         4.37316640491139    9.01046731187875   13.33070887518547
H         3.80280636181547    8.26148836800239   12.80227279391046
C         1.12609226518359    7.87907473806394   13.90328148279047
C         1.59905126929199    9.82786381661707   10.95461980807431
H         2.08327471585656   10.77923815834029   11.11289615740584
C         2.22763006003972   10.10954224872103   14.05156976927392
H         1.90121225201792   11.05312755242698   13.60013798300205
H         1.89654189709397   10.08932917572329   15.09509234564488
C         0.34310453941171    7.30545126461247   10.51815921117577
H        -0.12761791974935    6.34745200213742   10.36510695015547
C         1.21677154267456    9.41329266528207    9.69456622463961
H         1.40005915478586   10.06003052998504    8.84984032072765
C         0.60023100695333    8.17766863932870    9.48126188656133
H         0.32084943260397    7.90193057175186    8.47595112497876
C         5.77249561873212    8.92420696585942   13.29675191181674
H         6.23468404411404    8.11278267234392   12.75508858114321
C         6.53402954237089    9.85638945558111   13.93825088632323
H         7.61251470723643    9.79983670026788   13.91679114584939
C         1.20211478556965    7.56797218837898   15.33244342473877
C         3.92745260493983   12.07977410228664   15.39390056481486
H         2.85373146876100   12.17271105740350   15.44391435521585
C         2.11399625165661    6.58147049408784   15.78919828001436
C         5.92465660840457   10.91702476744531   14.64081788392612
C         4.50686827246363   11.00622795749748   14.68256358791339
C         2.13760650063047    6.27125448665974   17.17353971541753
C         6.69819978043043   11.89387053259878   15.30181926781119
H         7.77485721823608   11.81265251716139   15.25928820109913
C         4.70605366606218   13.01101547029003   16.02388129402015
H         4.24439746202118   13.82571820670415   16.56195637066921
C         6.10435253796275   12.92071299624156   15.97886997645320
H         6.70291859536979   13.66591997153780   16.48115677069721
C         0.36043374871953    8.20413885610071   16.21235749605654
H        -0.36012997107089    8.91989812425429   15.84690688057695
C         2.98498580750807    5.89011555524144   14.92151414934129
H         2.96438656130504    6.11558892217662   13.86599974560527
C         1.25862235157410    6.94365970805980   18.04755832396607
H         1.27724317004185    6.68867235573483   19.09779812348928
C         0.38919188256008    7.88642953981838   17.57647978145309
H        -0.29554423092903    8.38522414348002   18.24511088055063
C         3.03048596527488    5.28086595753737   17.63507900335275
H         3.04995217202740    5.05710329133920   18.69287385201875
C         3.85211473198483    4.61809006125734   16.76799089778038
H         4.53030042945896    3.85780444552277   17.12868890750594
C         3.82584638836432    4.92447727256446   15.39871758920896
H         4.48041687094765    4.39256482476299   14.72393483224881
N         0.88523591774917    2.70205830887178   16.11044179358941
C         0.68758152697222    3.51544584396136   15.08486916141060
H         1.07971436629969    3.14645112922701   14.12913014350905
C         0.38467581172784    3.03429946956501   17.42444306231380
H        -0.11210303991820    4.00065977236787   17.36638171764461
H        -0.32709643844545    2.27664095695684   17.75663691977244
H         1.20909530540642    3.08954646991375   18.13663519091288
C         1.58408034847811    1.45043176279530   15.98538736936514
H         1.88341995768153    1.29336491527880   14.95182760692414
H         2.47379553536985    1.45424459995207   16.61952966871890
H         0.93833588799622    0.62632324968834   16.29598678416158

