112
CSD_code = DIFDOO | q = 0 | S = 0 | Stoichiometry = C56H49ClCuP3S2 | MND = 4
Cu        3.76370744939681    3.47799885858790    6.77852808492842
Cl        4.11710642122513    4.63620222994335    4.88128519926135
S        -1.87759487191162    7.33395281792291    5.04764497968740
S         2.57442834823727   10.22914836482217    6.31550111615554
P         1.52954913173328    3.81859293902135    6.96360430589736
P         3.61230899604870    5.56990095118855    8.22903493711332
P         5.26482353856499    2.19174204019067    7.78728996801029
C        -0.92750741154326    7.70241844214806    7.63710680063379
H        -1.96198070785050    7.63058410600630    7.97304025436349
H        -0.67877230617700    8.76076955987931    7.54422634587366
H        -0.27451863310444    7.27121011264311    8.39174527093438
C        -0.74622885810545    7.01480419387204    6.33008795659951
C         0.21639978083594    6.13301488361705    5.92788532459684
C         0.05916401312335    5.73998668068918    4.56512836014928
H         0.76453871023140    5.10403471870601    4.06192751158105
C        -1.01205967142651    6.29383700268974    3.95332164539440
C        -1.47739637424330    6.10640807038499    2.55467007462840
H        -2.47627731520438    5.67025772247694    2.53703310591742
H        -0.79503873886015    5.44147190040234    2.03063040001310
H        -1.51891241064090    7.05954985770371    2.02772124566256
C         2.50405232704277    7.98343339475724    4.66402622875696
H         1.53191020891871    8.02578060981219    4.17035799560619
H         2.83630322851261    6.94671526420468    4.67549654023034
H         3.20585984040592    8.57021160881592    4.07415277052940
C         2.42279756499673    8.51871691390445    6.04581693229123
C         2.29783011497435    7.85049169097936    7.23064786967034
C         2.34054240969698    8.71952555756271    8.36065387946210
H         2.26619633863943    8.36568534285026    9.37507604101197
C         2.47723019080372   10.02704759989874    8.04007113917752
C         2.56202856407181   11.20168201084460    8.94734185547459
H         3.52667010367540   11.69745105827051    8.83875384652638
H         2.44883771494019   10.87950496388607    9.98002535709764
H         1.78449049414501   11.92919560896506    8.71547260552547
C         1.30847572917493    5.61805308223206    6.75491143906376
C         2.23160258436409    6.39457803807958    7.36326237155044
C         0.63025177137302    3.50292594284810    8.52052930361431
C         1.15691226956875    2.51066747714694    9.33874820472879
H         2.04978592349395    1.98697516753041    9.01748082532835
C         0.55318544054750    2.20270888174596   10.54293289229249
H         0.97178570070951    1.43157221033549   11.17295534392517
C        -0.58587846233389    2.88550271888916   10.93519340542513
H        -1.06044096866389    2.65001172161356   11.87658158925219
C        -1.11814135198949    3.87298134396526   10.12155631338062
H        -2.00845696785160    4.40349074437613   10.42870587034020
C        -0.51340807946596    4.18709200004437    8.91832952631568
H        -0.92248990171395    4.96754868976812    8.29253489396420
C         0.41151284214925    3.07132221044769    5.73164486915615
C         1.04424174085241    2.56347820828577    4.59839112976548
H         2.12183793918503    2.64462384322149    4.52023262999494
C         0.30245372888766    1.99859329326415    3.57857971781061
H         0.79720053087402    1.61736219028173    2.69717048483654
C        -1.07665756547410    1.92630294595889    3.68967045219108
H        -1.66122061860199    1.49019687402303    2.89267734851279
C        -1.70733928363110    2.40778955782383    4.82524665452549
H        -2.78249618671866    2.34338334285662    4.91340334195570
C        -0.97010139121939    2.97407788325156    5.84921206304939
H        -1.47112764972157    3.33906799984056    6.73357324560433
C         3.09039971532056    5.50687121824665    9.97388405855607
C         1.81267727249293    5.80498695293695   10.42721660124117
H         1.07413907124556    6.18723345243773    9.73748269116789
C         1.48229663584791    5.61265882685359   11.75641823772012
H         0.48517450413731    5.84877209994721   12.09917114272990
C         2.42254532071081    5.11956681448079   12.64467909239399
H         2.15988775890351    4.96697762299551   13.68114907305489
C         3.70303145243776    4.82488118889367   12.20215469426989
H         4.44205985214751    4.44415846942036   12.89306935613575
C         4.03344400456503    5.01075099991467   10.87401296884431
H         5.03196806970218    4.78550092141082   10.51789174349522
C         4.80296208299354    6.95348217650030    8.23575350477272
C         5.28853739497318    7.30956612383407    6.97815713568728
H         4.96702911475557    6.75264668040287    6.10763866219783
C         6.17086416354155    8.36328943573281    6.84649461628608
H         6.53293700601383    8.64279874773544    5.86775217162657
C         6.59087807734174    9.05849032503509    7.96963262574470
H         7.27845081163634    9.88606534847966    7.86914177007176
C         6.13185788444702    8.68842317396671    9.22221887278444
H         6.46233668724115    9.22639533287837   10.09971219712602
C         5.24158639084414    7.63839586528398    9.36097949171914
H         4.88148372018091    7.36736718953614   10.34346674602742
C         6.48809998833370    3.25718590945562    8.61432710865754
C         7.09161461240026    2.98833432746006    9.83717231726668
H         6.84281581471355    2.08940055786216   10.38427738091953
C         8.00529801522702    3.88708199793609   10.36006686176848
H         8.46918615519644    3.68245280056872   11.31447643824424
C         8.32582896641001    5.04389837655818    9.66800376327441
H         9.03515781322594    5.74262090049845   10.08635385706147
C         7.73860351433255    5.30539968448459    8.44046839365082
H         7.98798021894698    6.20551501720291    7.89899171002976
C         6.81854959476716    4.41724945596463    7.91678095218779
H         6.34725680141051    4.60929225284220    6.95975670822808
C         6.36482849338058    1.27841679452531    6.66191537060012
C         6.12141917328345    1.36899324541265    5.29650878969887
H         5.28729359107777    1.96374556550120    4.94661289108276
C         6.95492674194028    0.71957327043781    4.40275449429507
H         6.76722005672282    0.79155383950257    3.34187316525609
C         8.03030101863011   -0.01636269394444    4.87086687195834
H         8.68080896269086   -0.52486421116039    4.17441104223074
C         8.28198960657639   -0.09680358508080    6.23272251311043
H         9.12808766999848   -0.66409444091467    6.59296805796881
C         7.45630014270621    0.55174901174485    7.13052383067816
H         7.65168184685432    0.49927549320584    8.19318074027328
C         4.81596562633494    0.96955513322979    9.05633380281877
C         4.29947469295209    1.44831354802854   10.26051654694377
H         4.23668478760364    2.51590532137738   10.42631084941032
C         3.86891276659574    0.56719094706588   11.23332933975314
H         3.48857268260147    0.94790608539309   12.17049407142420
C         3.92223653911515   -0.79900923922481   11.00386742083451
H         3.58599258179326   -1.48900448017734   11.76370722237257
C         4.39703276731198   -1.27812672425182    9.79392840553054
H         4.42406410454764   -2.34197938019613    9.60829011561945
C         4.83757508420292   -0.40092752585564    8.81863691509888
H         5.20271661138923   -0.77774966695216    7.87346473306633

