75
CSD_code = DIFFAC | q = 0 | S = 0 | Stoichiometry = C36H34ClPS2Zr | MND = 13
Zr       19.49704669030664    3.60208680040642    6.50722556676939
Cl       21.32713213588712    5.16569069306053    6.44771260230101
S        15.47294871834875    1.70424987448150   10.03783731409891
S        13.41037746098011    6.37332546942686    8.49188574209844
P        18.46698139127062    6.35018047791034    6.71982199833674
C        16.69382261585896    4.16281239133206   10.53772245452374
H        15.81866297342453    4.77923249926978   10.74825787081818
H        17.48350003235909    4.81175519215492   10.16133150987503
H        17.01723730371841    3.71257264265778   11.47593670497661
C        16.36976275415135    3.11009850200486    9.53663457481952
C        16.73166188190775    3.03376699463521    8.21827518089248
C        16.27353981021205    1.82084329373747    7.61165097335810
H        16.45070618284186    1.58114933878710    6.57493967429151
C        15.57274657692563    1.01468244638077    8.44515674302672
C        14.94295198065900   -0.30051162399651    8.15064065655615
H        15.38214029589546   -1.08415134391464    8.76791108983690
H        15.08706265958693   -0.55620492824621    7.10327947571834
H        13.87428816476209   -0.27232081246234    8.36168955431566
C        14.24550337052945    4.35529598628144    6.75216132230004
H        14.00428521058934    3.44147718514804    7.29648911078696
H        15.06857997629402    4.14222386619682    6.07193549843215
H        13.36779485078369    4.64476869937322    6.17596684792362
C        14.63835587748373    5.44453211556480    7.68490383527551
C        15.88989488684963    5.90036293727239    7.99270896451068
C        15.85373660104977    7.01827292136489    8.87733290884858
H        16.74105379476480    7.50954840836747    9.23466776089125
C        14.60439288181464    7.38929396228561    9.24369714223760
C        14.19476566748968    8.49109275304724   10.15415035578957
H        13.58098938912752    9.21994722133378    9.62497569656661
H        15.07722301964618    8.99273166383243   10.54463579373337
H        13.60918854856229    8.10606283687750   10.98887553040627
C        17.53643495946515    4.03307121025216    7.50380911654569
C        17.13524890850289    5.32736830858707    7.46973046895525
C        17.67578605259565    7.79883940247812    5.93916560146706
C        18.51328559405905    8.84923588736163    5.56075618073559
H        19.56685054217127    8.79569329672008    5.80365714781191
C        18.00699916565505    9.93636343763332    4.87508776714074
H        18.65979632169542   10.75117510209015    4.59710788855438
C        16.66386025242269    9.97530812660593    4.53367405810979
H        16.26613275897298   10.82543882419893    3.99934597662589
C        15.83908130961017    8.91191328322923    4.85890406185278
H        14.79788517922629    8.92777079619973    4.57081311943256
C        16.34233007114497    7.82133190612372    5.54622401612849
H        15.69676323715782    6.98833374376070    5.77765912254590
C        19.12966556742230    7.05076554204142    8.28640145325084
C        19.69599799162306    6.11485243221513    9.15072729615492
H        19.70738237253375    5.06390900643835    8.84960670617830
C        20.23051543302004    6.50719660976768   10.36294897967096
H        20.66480839920035    5.77258993140046   11.02565804778059
C        20.21174478820122    7.84537878045597   10.72578295699371
H        20.63388396385994    8.15677330382607   11.66944129064303
C        19.64969047433377    8.77991294633732    9.87358102372966
H        19.62847972754519    9.82297448522972   10.15453779783324
C        19.10887816574206    8.38984718037159    8.65943151556229
H        18.66169009532157    9.12997850574534    8.01202298866279
C        18.36716847053101    4.44390661500312    4.25976595603937
H        17.84784891299689    5.37667993516768    4.07776681593929
C        19.72717011726308    4.19570969520440    4.00865960549635
H        20.44284591890237    4.91762929755177    3.63796398758402
C        19.97130317456655    2.82157707756545    4.21373312611841
H        20.89609875715500    2.30613897187910    3.97508197165347
C        18.74361352385816    2.21408697882482    4.58031844290717
H        18.55599403964651    1.14924715816949    4.65766826484882
C        17.75811364055517    3.22287441689556    4.61747710792278
H        16.69323766599642    3.06545593278847    4.72452319479379
C        21.08248521316629    2.82682411659783    8.37748402795061
H        21.66324117500331    3.51149468121461    8.98341771622488
C        21.54466829980169    2.17558202425152    7.21767196229563
H        22.52970699469299    2.29071642445303    6.78352838643753
C        20.55946109828169    1.25850722046760    6.80973990290162
H        20.67644264285489    0.51132027102014    6.03528319437585
C        19.46941751945880    1.35991226201178    7.69674194999298
H        18.61865098712596    0.69272308136696    7.73340105860311
C        19.79414667739910    2.33419877178269    8.67421659960456
H        19.23206013510151    2.52792455414211    9.58097169161018

