27
CSD_code = DIFHAC | q = 0 | S = 0 | Stoichiometry = C6H12N2O6Pt | MND = 4
Pt        2.69402836514294   18.35267653619129    5.14545486406592
O         2.96746507574524   17.22018677539037    6.79141302351138
C         3.58950382463913   16.12084974122710    6.60069709949364
O         3.68726315268214   15.21387247687255    7.39736714779316
C         4.25624279193722   15.98060290935779    5.18188275633283
H         5.23898544963554   16.46193683623733    5.21733537953518
C         4.38294852726799   14.49788293395647    4.80601504522948
H         4.79888604575148   14.38888607888357    3.79991814777378
H         5.04300198454976   14.00024400459889    5.52379455179562
O         3.11083501065714   13.90085160309856    4.77738536523409
H         2.81569009185124   13.80614958066504    5.69300492777988
N         3.38781875284134   16.68351608821659    4.21241042405734
H         2.60976717866050   16.04330304515402    3.99874889312093
H         3.87756877827915   16.86466059888910    3.33269037002769
O         2.41801010702862   19.48520204726880    3.50005656904340
C         1.79700245835182   20.58526839987647    3.69017980809695
O         1.69366434032764   21.48837608427392    2.88986990762936
C         1.13999134673460   20.73363832308027    5.11294315917645
H         0.15102514915172   20.26507717266518    5.08289439997165
C         1.03470654278575   22.21816730420554    5.48852641122900
H         0.37894579928150   22.72482955012616    4.77331728268055
H         0.62476460521074   22.33327036805723    6.49638616910570
O         2.31541571581831   22.79724881018798    5.51199695326159
H         2.60768572764692   22.89010227205272    4.59541026249419
N         2.00446131792417   20.02197836231541    6.07929023910180
H         1.51505200027581   19.84182954407962    6.95936095595995
H         2.78726985982118   20.65659255307042    6.29294988650023

