88
CSD_code = DIFMOX | q = 0 | S = 0 | Stoichiometry = C35H45Cl2N5Pd | MND = 4
Pd        0.48472624219037    2.55661027423467   11.36382131737139
Cl        1.55580015439297    4.16527263670968   10.15557251670156
Cl       -0.40903468192346    0.76603566533433   12.47355990240811
N         0.73836931746522    4.65840380226502   13.41834510941718
N        -1.28159076462224    3.88088256152893   13.29878557029768
N         0.95725041499563    1.21180436502066    9.94044158687326
N        -0.01180752026345    1.05851596928157    9.11491719628201
N         0.27846394813720    0.02966682336522    8.33357430847172
H        -0.37002488026409   -0.27610014546003    7.62542471099842
C        -0.05569508825280    3.80108575274451   12.77550726419420
C         0.06600493642951    5.29084892803556   14.55225445505173
H         0.27228784596741    6.35957121023676   14.59421646051878
H         0.42133454148025    4.83123746870187   15.48403075461393
C        -1.39636981642995    4.96469639469735   14.27298760781131
H        -1.94337387505207    4.64951791648491   15.16021179653605
H        -1.93037658709303    5.80855292063734   13.81570293646589
C         2.12898622225267    4.87933338307180   13.22254380717198
C         3.04941148111712    3.89000200800834   13.58137638175332
C         4.40382322933997    4.17055597374726   13.44882484619269
H         5.13179161903096    3.41835877501383   13.71216224816138
C         4.83330203465030    5.39696035742237   12.98427283767925
H         5.89027864746312    5.59974867766365   12.89126887206806
C         3.91109897900746    6.35935649667963   12.62256378560744
H         4.25722679091424    7.30758067632509   12.24180972762784
C         2.54881762124935    6.11994294610648   12.72810412521070
C         2.61791262118299    2.52335738691494   14.06357518864450
H         1.52258117995225    2.47413985920953   14.11585745296030
C         3.16769672992493    2.21313452245316   15.45641352482348
H         4.25462380459416    2.18340467203226   15.45330451315725
H         2.79879516081443    1.24601858714370   15.79021460715685
H         2.85063869750599    2.97004772675052   16.17158422876815
C         3.06687567760291    1.47368166847249   13.03876233602509
H         2.79630514544153    1.83104390308989   12.03197726947781
H         2.56779050110221    0.52529824292197   13.23518495527505
H         4.14466638426791    1.32487426086350   13.07576922398192
C         1.56875252443278    7.18310356254395   12.28813591944022
H         0.55452485535553    6.77959688930222   12.35466031677401
C         1.67379288826295    8.42271112390947   13.18246295558070
H         1.55734272569822    8.16693839333732   14.23494605587497
H         0.90507694332013    9.14474889747136   12.91457799273676
H         2.64402977266807    8.89770684103485   13.06079873287869
C         1.79867145222250    7.55899903248774   10.82310997752650
H         2.76391664707248    8.03812534608633   10.68437266543832
H         1.02317692853424    8.24644064451685   10.49107261421389
H         1.76332168451968    6.66179730641950   10.21073090035392
C        -2.45044120790454    3.23117264732128   12.81520351380004
C        -3.11528494881411    2.31732879946386   13.64211618476134
C        -4.28093254986755    1.73151733998144   13.17010207335399
H        -4.80982388528896    1.02431635716530   13.78969146569052
C        -4.77077062993674    2.02999391672065   11.91371704462974
H        -5.67498866788599    1.55588693694667   11.56029471603466
C        -4.10519049855285    2.93346188016054   11.11085031411561
H        -4.49760750660892    3.16328612120930   10.13207528626936
C        -2.94137666507475    3.55648357737072   11.54566926453275
C        -2.61032002865323    1.96372294301554   15.02219011731375
H        -1.61422184065806    2.39535820469564   15.15288855727758
C        -3.55459905659566    2.52880412895289   16.08942469523269
H        -3.71584869611126    3.59789316398146   15.95732095606680
H        -3.14402733371884    2.35951593143329   17.08282471196844
H        -4.52321663010739    2.03799691204032   16.03234275192992
C        -2.46132327604013    0.45177024520756   15.19821331503667
H        -3.42291248927583   -0.05211590714119   15.15311957506623
H        -2.00841759151271    0.23719521730398   16.16414351287130
H        -1.81998336973329    0.05836371014043   14.41460713040875
C        -2.26899153381757    4.57079871483786   10.64727868536112
H        -1.35331563445792    4.94520129371555   11.12123693189552
C        -3.18943024222006    5.76754646107875   10.39501380161214
H        -4.09116655508786    5.46287679796918    9.86942402477984
H        -2.67282101136371    6.50857699062376    9.78927127234084
H        -3.48546823678447    6.23262600779811   11.33410332516517
C        -1.85030041746868    3.90390700644080    9.33432300739380
H        -1.28147606082341    2.99043606224870    9.55864085871394
H        -1.21697410402692    4.57714384068395    8.76076446747831
H        -2.71653197853615    3.63646860664626    8.73309710733487
C         1.90123180875476    0.27868288169363    9.72566283886928
H         2.80585837934384    0.22895444297649   10.29762276112663
C         1.47481920392839   -0.51258820550065    8.67117683416252
C         2.08478253606391   -1.65294411076537    8.01629250968744
C         1.71508390169604   -2.02498740601078    6.72390439077761
H         0.97650420074338   -1.45222254916508    6.18159421714862
C         2.31099206083555   -3.11336091160348    6.11554529605472
H         2.02037936798442   -3.39115673060759    5.11345354335303
C         3.27866898164979   -3.84385046829735    6.78509505500964
H         3.74058313592890   -4.69435303528863    6.30725048100327
C         3.65253541841854   -3.47937915817188    8.06847684956831
H         4.40559369858992   -4.04721893703937    8.59361000047300
C         3.06277094144629   -2.39167135911387    8.68240412389667
H         3.34476587491173   -2.11624906602948    9.68657087385096

