86
CSD_code = DIFMIR | q = 0 | S = 0 | Stoichiometry = C35H43Cl2N5Pd | MND = 4
Pd       -0.38375347190281   11.20944656037306    6.92631441454617
N         0.07163449639699   13.39407675724381    8.90572595728012
N         0.59473777479662   11.47900302245254    9.72749199663062
N        -0.93818514737057   10.25400956623163    5.24359661971419
N        -0.15999352178155    9.26872278545293    4.98311911531409
N        -0.67169092631970    8.60550364973939    3.95755175594392
H        -0.21981909939087    7.77627020195717    3.60576421643689
Cl       -1.76939365371987    9.74975831480297    8.01367106021576
Cl        0.88158182523176   12.63664613433410    5.67716948006039
C         0.14088481572791   12.08026715910406    8.60891200681660
C         0.48222063319797   13.61135339750075   10.19729136957738
H         0.49242975187233   14.58927324989917   10.63187584280753
C         0.81055282104472   12.40761646535568   10.71359154158836
H         1.18614825675009   12.13582424291687   11.67797335207761
C        -0.32042138703507   14.45339962758644    8.04088389468423
C         0.63569143884275   15.40288804210712    7.66453020847024
C         0.22291490407680   16.46586260345206    6.87355833822044
H         0.94195904246867   17.20778986185518    6.56358398198051
C        -1.09118159600481   16.58357287601929    6.46599453676929
H        -1.39149528846136   17.41605679824391    5.84671149329306
C        -2.01816520881094   15.63178224549289    6.83974864379741
H        -3.04034294870767   15.72668905079560    6.50703109714003
C        -1.65396308517109   14.55234228212217    7.63499872873490
C         2.08924283774229   15.29412942831493    8.06323378875982
H         2.24439536902625   14.36892626795014    8.62534075723265
C         2.49699654860676   16.46962815225928    8.95588759706534
H         2.40224546450000   17.41109085760290    8.42082339115675
H         3.53257206937036   16.35699265232998    9.26930994364145
H         1.87204865543917   16.52137073242935    9.84571802212079
C         2.97759859515385   15.21905941394912    6.81975867880033
H         2.63007864673434   14.41575182975686    6.17480763393257
H         4.00705866838582   15.02039210330318    7.11046484630822
H         2.95225996836604   16.14997170082709    6.25990063865794
C        -2.69392525244326   13.51985724720736    8.00852469766407
H        -2.24191375431823   12.74019860835349    8.63497998798393
C        -3.84458100332131   14.14269040133757    8.80015632752844
H        -4.36801226934188   14.89225160188605    8.21149957168065
H        -3.47185284748721   14.61826911697430    9.70533410754259
H        -4.55532302652387   13.37006488120626    9.08393412979558
C        -3.19732609069907   12.83671659473259    6.73055258456818
H        -3.84309190026124   13.50027421498582    6.15810863186114
H        -3.75031773113889   11.93351554363113    6.98684902397498
H        -2.32564692053555   12.57320906831079    6.10992517781869
C         0.82524138057149   10.08626340626766    9.89894773613450
C         1.85805197439034    9.47792283656381    9.17967729127068
C         2.07731337427223    8.11972807303026    9.37463311660703
H         2.86210619258261    7.62326299037528    8.82508364797612
C         1.30720635027367    7.39654058719149   10.26283391670028
H         1.48914938624741    6.34055175619240   10.40001637968807
C         0.30476880490636    8.02116719706773   10.97869134714764
H        -0.28824025675791    7.44577771067091   11.67207537183900
C         0.04049898957028    9.37329194465537   10.81184404874559
C         2.74940321191507   10.24817430844690    8.23111350546841
H         2.43389729710296   11.29763708880885    8.18670634914270
C         2.61532872116818    9.67910155749813    6.81646122302824
H         3.03917019511053    8.67948285336799    6.75079817151331
H         3.12495235559288   10.32598531227052    6.10565885454701
H         1.55005845963214    9.62870282582989    6.54704420214423
C         4.20260084304750   10.21898367923844    8.71048587745063
H         4.28445912226780   10.63465425704341    9.71330718219809
H         4.82279262364140   10.80946312221798    8.04012746410821
H         4.58871844327559    9.20280819725063    8.72990237632662
C        -1.06624004030630   10.02092697273537   11.61171111265059
H        -1.20620182931038   11.04985493927635   11.26824434187399
C        -0.69606730264129   10.05305595044794   13.09791687241474
H        -0.59558877528434    9.04343634033230   13.48863413185369
H        -1.47107868669309   10.56482344912157   13.66432873734322
H         0.24715891934555   10.57217542233780   13.25834208895325
C        -2.39580008148156    9.29396076837455   11.40344771023588
H        -2.61036653193992    9.22922611686613   10.33998696737087
H        -3.19744883519593    9.84349309502689   11.89256846709606
H        -2.36816237508272    8.28947062502465   11.81684232977843
C        -1.98630794188181   10.25140210194968    4.40018006014740
H        -2.75882730278257   10.99304403555140    4.43294483748675
C        -1.83161557632564    9.17345257687039    3.54388790345828
C        -2.64633848300830    8.69177004174282    2.44559390311731
C        -3.99923564651327    9.02658902524126    2.38884192648188
H        -4.43074512933676    9.62923794138933    3.17275038993964
C        -4.78528848527152    8.57341356849193    1.34731869513344
H        -5.83231839160703    8.83421055901809    1.31402129096464
C        -4.23485046461248    7.78534665508501    0.34940199811379
H        -4.85074004778373    7.43266897188094   -0.46384358253184
C        -2.89122887646890    7.45226066398858    0.39630228753285
H        -2.45741649238869    6.84289979250014   -0.38235110084922
C        -2.09900306464471    7.89955217312844    1.43658654548119
H        -1.04782248049337    7.64931319726191    1.44983483390401

