87
CSD_code = DIFPAM | q = 0 | S = 0 | Stoichiometry = C38H36F8N4Pt | MND = 4
Pt        6.80267029692115    5.56913276660059    4.73921363382398
C         7.98517961319761    4.19901024417970    5.69720802215724
C         8.84917569802204    2.60811036009977    7.00435260494272
C         9.88869583059473    3.15840918648831    6.22847367823917
C        11.19155400994431    2.69788916181453    6.36085543725316
H        12.00488807283084    3.10986629178294    5.78773346158108
C        11.42812679846785    1.68443113525254    7.26803590862323
H        12.43302302954455    1.31175419420993    7.39343138434295
C        10.39876754547422    1.13381615670769    8.02578834457407
H        10.62186229533571    0.34151565437961    8.72357972222972
C         9.09890443760695    1.58375733432318    7.90682651160528
H         8.31788743649054    1.14505450222911    8.50542086891918
C         6.37406790605570    3.12873273691934    7.19779486361269
H         5.78155689452828    3.92158642983559    6.71506558358689
C         6.36601807601624    3.38378010353706    8.70265100359453
H         6.83360836425875    2.57247565448013    9.25177198052339
H         5.34145474050925    3.48802381554539    9.04965039507036
H         6.90197215154785    4.30275751408468    8.92242279664901
C         5.79546622764291    1.76329690334189    6.82745623690096
H         5.71149368027912    1.66703655632333    5.74629000447438
H         4.80788084646104    1.64380549713393    7.26515141844202
H         6.42829789201368    0.96012481988768    7.19506207142202
C         9.98566705746696    5.01491224124742    4.50557715321025
H         9.17804877986677    5.61477908849416    4.04303183761891
C        10.92309795946079    5.96303925434906    5.24887641696794
H        10.37130949602907    6.53656330940747    5.98734680953742
H        11.37287759062007    6.65620852683884    4.54357445057674
H        11.71402701226756    5.41822523037070    5.75689382707844
C        10.72290746193739    4.24500032952431    3.41076456026043
H        11.65572607404672    3.82680327398244    3.77755679747035
H        10.95567980330094    4.91996880768747    2.59171439673976
H        10.11062887364330    3.43406580944887    3.02752327379258
C         7.50581098532895    7.13119142802945    5.87734838686333
C         7.07047070427472    8.40040186986368    5.42324202143566
C         7.09951030399280    9.50809844217470    6.26389454472901
C         7.65229986168245    9.42602641386056    7.53852462155342
C         8.14808841229357    8.21325095730116    7.98218575946373
C         8.03078128723587    7.09597465314171    7.16109953191875
F         8.48024451559620    5.92150020832928    7.69038734978950
F         8.69654712076946    8.10548643876224    9.20662555258052
F         7.68413161355161   10.50603304570271    8.33636574903183
F         6.52850880752710   10.67405020635429    5.92257524305895
N         7.70299826392449    3.28146434307562    6.64107225320082
N         9.30825744695741    4.12235131242493    5.43351552395540
C         6.09896078157640    7.13116687495858    3.60130030765479
C         6.53436295919908    8.40038195541753    4.05537809800176
C         6.50539297716842    9.50806870290828    3.21470733718073
C         5.95262070003356    9.42600606954701    1.94007291497754
C         5.45682515596620    8.21323255041078    1.49640675712586
C         5.57406593006363    7.09595765579421    2.31751208311291
F         5.12461272428405    5.92148345208431    1.78821387625243
F         4.90839317490821    8.10548362581885    0.27195427952168
F         5.92081088786585   10.50601990821830    1.14223742073811
F         7.07641121464282   10.67401246596477    3.55603434756088
C         5.61972438850248    4.19924393932325    3.78127192894999
C         4.75573588274381    2.60819144513051    2.47425290060255
C         3.71621892235417    3.15847898701131    3.25013693042483
C         2.41337270239780    2.69789176332905    3.11780724137416
H         1.60003505954134    3.10986554978813    3.69092497235834
C         2.17680471054152    1.68442094215426    2.21063403422370
H         1.17190363562702    1.31177368091757    2.08519611780414
C         3.20616380102735    1.13381692188972    1.45287609698280
H         2.98305899572298    0.34155884811704    0.75503913126096
C         4.50602308161503    1.58378257512868    1.57182667374044
H         5.28703949588388    1.14509077020419    0.97322149967898
C         7.23084759027100    3.12876266022541    2.28084030791178
H         7.82336228923377    3.92163018859848    2.76354293633870
C         7.23888610754279    3.38377401086591    0.77598195920294
H         6.77128581259117    2.57247172269920    0.22685978619275
H         8.26345830599392    3.48800131325149    0.42900241371072
H         6.70295078564980    4.30276228956370    0.55620610713258
C         7.80944781302926    1.76331257699350    2.65116976377531
H         7.89341230715968    1.66704501633983    3.73233480054429
H         8.79703427660593    1.64379296995506    2.21348146311295
H         7.17661319081025    0.96014073207214    2.28356527645231
C         3.61923662498140    5.01493369474723    4.97306214625631
H         4.42685855243447    5.61482772156057    5.43557762271603
C         2.68180278853354    5.96303070747995    4.22974114500161
H         3.23358984892175    6.53656121112591    3.49127150553999
H         2.23203613873236    6.65618828172479    4.93506226189364
H         1.89087163169190    5.41821290521577    3.72172736215406
C         2.88201271216051    4.24500855052261    6.06788461676860
H         1.94920278877659    3.82679773066392    5.70108911013127
H         2.64921782252550    4.91996867873598    6.88693420241805
H         3.49429526395322    3.43407656661363    6.45112711081190
N         5.90190844220265    3.28156870296472    2.83752078712147
N         4.29666044901461    4.12244087443992    4.04508037188426

