77
CSD_code = DIFQER | q = 0 | S = 0 | Stoichiometry = C28H42BN2PPdS2 | MND = 4
Pd        9.60632241140011    7.16654698792404    7.01346665738950
S         8.26465611455932    7.59666506085551    8.93579620080476
S         9.95947366760967    6.57622701399847    4.76956128865122
P        11.55394564357870    6.20184594032264    8.14706390801195
N         6.83302499066352    8.19865338718123    6.80020635558965
N         8.17526466876552    8.50802449551401    4.64209662626770
C         6.82791794934615    8.03605354661573    8.15970137762142
C         5.62411685621271    8.14271349062719    8.87332507161959
H         5.67326062744934    8.09352491403501    9.94902566016904
C         4.43176832020750    8.21617159374506    8.20047104576401
H         3.49545643486435    8.25261724891674    8.73482872993148
C         4.44947209550728    8.19807753021609    6.79934289212713
H         3.53358838680297    8.18888328584899    6.23201432350472
C         5.65512368162363    8.21136275333600    6.14887122086520
H         5.69908167351683    8.21361261286696    5.06977229907964
C         8.97240043574498    7.66572947606201    3.94097921295628
C         8.97624451828775    7.72386298192786    2.52925662463021
H         9.60716800856197    7.02630559098234    2.00274034484582
C         8.20573772799894    8.64421931161297    1.88013233969484
H         8.19707909764823    8.69892241145628    0.80248570930458
C         7.43513497169806    9.54718918549477    2.63715541573459
H         6.84803998540087   10.31237984377438    2.15758012274312
C         7.46027753106567    9.44717156892228    3.99970524723786
H         6.91877057103995   10.13924952337504    4.62922116553191
C        12.12378763406566    6.71218011370694    9.85266840607541
H        13.11913868733496    6.30873566934003   10.06751246016100
C        12.16141930378089    8.24327744329982    9.83480447834680
H        12.93198003156013    8.58737903514411    9.14219529974644
H        11.19266647337617    8.60360490172800    9.46404309688809
C        12.42975532664909    8.83479541264057   11.21386054867457
H        13.42260732114393    8.52906460312030   11.55595923702506
H        12.41828654812568    9.92529538585532   11.15254323547675
C        11.38200137440317    8.35171874863592   12.20801295112246
H        11.57064311243329    8.77976789102214   13.19504690191193
H        10.39310242537692    8.67592396731773   11.87792563685725
C        11.41445600360923    6.83068014279707   12.27760380945612
H        10.67224976204567    6.47123375871578   12.99353019538513
H        12.39936276430396    6.50468728997581   12.62369249616531
C        11.12978530525081    6.22325658397795   10.90668823138023
H        10.11940333627128    6.50112678774773   10.59182021607194
H        11.17755118947117    5.13612051659024   10.99302797546148
C        11.24158545969170    4.36506103257844    8.28217798067189
H        10.62550200149918    4.25057031814683    9.18297036512923
C        12.45288602830278    3.44555201174733    8.39400780743009
H        13.07400225422430    3.53925621838984    7.50144931019927
H        13.05339197601277    3.71841100736979    9.26495595111027
C        11.99553291159338    1.99302622495629    8.52267416296298
H        11.41151790245656    1.87458511216343    9.43872049931493
H        12.86625425327856    1.33686932729209    8.59455472378325
C        11.14063858456550    1.59506041400617    7.32327949196572
H        11.73798266342294    1.67166228405567    6.41169787608011
H        10.81747598667338    0.55673254684519    7.42520475737410
C         9.92469109871354    2.51032579336033    7.20910407823308
H         9.29879578535902    2.39078065309349    8.09713576536722
H         9.32771411201640    2.23062892307577    6.33857282860090
C        10.36343886052355    3.96565180561677    7.09184724210200
H         9.47337109795818    4.62460096413917    7.06644847330038
H        10.91399696080915    4.10982679419874    6.15692650060464
C        13.06032625739227    6.37424366438256    7.05325720994947
H        12.90753904030564    5.60758382868331    6.27976767740779
C        14.44395324340419    6.19135953494396    7.67156366447095
H        14.64229191855722    6.99901795391521    8.37903938558549
H        14.51777355572158    5.24574967205235    8.20903943285361
C        15.49949067345929    6.23290384091381    6.56570796226476
H        16.49385909237125    6.10154812386727    6.99931797987123
H        15.32712519782546    5.40718878781806    5.87096808666716
C        15.43839903471423    7.55418491490601    5.80393039159600
H        16.17617256396325    7.55178453041409    4.99848801948266
H        15.68981048089412    8.37274230732010    6.48306267855108
C        14.04105453648584    7.78641605434384    5.23347839611187
H        13.81215779171858    7.01505668114273    4.49463138400118
H        14.00209354664371    8.75432899681542    4.72901007603756
C        13.00745132892316    7.73682216499847    6.35268179960991
H        11.99779582943386    7.91254269370109    5.95456292078470
H        13.22137896500714    8.53393481182245    7.06786241522925
B         8.21375647571171    8.43626694414940    6.19137814604820
H         8.69486956082481    9.47006505376033    6.61468954280391

