110
CSD_code = DIFRUI | q = 0 | S = 0 | Stoichiometry = C44H60O3PSSc | MND = 4
Sc        2.11365396391153    1.46898115640136    4.31504619556255
O         2.67433924999993   -0.08141401105357    3.29604614761635
O         0.29761956451276    1.83559997390430    4.38193334931510
O         3.38406179098669    2.78965875485680    4.11547322858287
P         3.41653984083833   -1.49129306064014    4.91639152404778
S         2.86679508191466   -0.12491070248187    6.25414363546841
C         2.20468644905336   -1.21304537662283    2.60478944116786
C         0.76406571076908   -1.03679357679055    2.10318820979790
H         0.12847513431895   -0.64207975981225    2.89765715055756
H         0.36484097288845   -1.99416261002066    1.77407414589465
H         0.74434296398380   -0.34476645442028    1.26311153921241
C         3.11472277116481   -1.51837929548423    1.40691714128418
H         3.09101996309131   -0.67649824027167    0.71823863394619
H         2.77413588954364   -2.41185966539783    0.88922164604887
H         4.14040534746971   -1.65773193997840    1.73762365442982
C         2.28892939888173   -2.30967964751967    3.68208959896611
H         2.68132752821102   -3.27217782549113    3.35021535271952
H         1.31848332059032   -2.46759731463518    4.16190324089408
C         3.77099346499556   -2.90828339892612    6.04113632041077
C         2.84499218055013   -3.91581611573627    6.27803920605293
H         1.90148405721803   -3.92402042218244    5.75198546025096
C         3.11693943965749   -4.91649890025078    7.19483219417481
H         2.39014361670516   -5.69708873150449    7.36719953288523
C         4.31267788816694   -4.91594119474601    7.89146535391294
H         4.52418983005024   -5.69868666035604    8.60466814433649
C         5.23151016326993   -3.90129987142712    7.67876116296597
H         6.16074451081267   -3.88727810665572    8.22909913307219
C         4.95851776271054   -2.90184368279081    6.76454232990732
H         5.66941110563911   -2.10205093606312    6.60760832625821
C         5.08976853994485   -1.25275118181091    4.23940574670790
C         5.72409016324898   -2.30483467779396    3.58841607962104
H         5.19602141736308   -3.23506918605966    3.42711463969937
C         7.03156438386986   -2.15941629904046    3.16504782997032
H         7.52371596674774   -2.97252440469420    2.65188354860806
C         7.71411753779428   -0.97753959432345    3.41124568143244
H         8.73853186698381   -0.87176497371151    3.08676994328501
C         7.08946184527553    0.05915245238731    4.08280826739706
H         7.62494813315630    0.97322839715255    4.29067220162407
C         5.77522526167070   -0.07591433970573    4.49740479220401
H         5.27873043606933    0.72694962001129    5.02986166077849
C        -0.97778041811321    2.18740896439862    4.56620769591535
C        -1.72155546980299    1.66464729485067    5.66099569271078
C        -3.04301981663626    2.04904761272869    5.82076891007431
H        -3.62459124376974    1.66715063349459    6.64252631086214
C        -3.65541595693248    2.92391990138710    4.94807078151216
H        -4.68607059440930    3.21033479305019    5.09662641208574
C        -2.93950787921697    3.42790701751792    3.88233233388926
H        -3.44160826173967    4.10756726953685    3.21517043451168
C        -1.61630398075830    3.08059278489443    3.66274728112213
C        -1.09207131322941    0.70372971016565    6.67090825487038
C         0.05098640900435    1.42111650731803    7.40163002996347
H         0.81490401123030    1.76606224706445    6.69627558080201
H         0.52788476845669    0.75094419593376    8.11501788476789
H        -0.34086374534828    2.28516872938293    7.93558442064715
C        -0.58183854674199   -0.55085252428739    5.94919693908698
H        -1.41374497153390   -1.06795449864618    5.47176763510602
H        -0.10505434825088   -1.22630768671264    6.65889914344862
H         0.14965861581116   -0.28180341851449    5.18381627180517
C        -2.07354267364735    0.22029000723797    7.74799272347044
H        -2.44297228638591    1.04690951288696    8.34961998847099
H        -1.55311334374036   -0.46772122773035    8.41214511360298
H        -2.91641822721562   -0.30941680923870    7.31001456227500
C        -0.87884730515740    3.65181666498469    2.45125265325813
C         0.32705896310111    4.47861799167960    2.91745553556433
H         0.80364931439015    4.97131276036786    2.07193533238591
H         1.07022937904025    3.85116704579791    3.41215674906825
H        -0.00028585862856    5.24379210185217    3.61857614069896
C        -0.43700756528211    2.49402507781478    1.54668661505297
H         0.06324076805195    2.87251863858173    0.65726679359579
H        -1.30642622072417    1.91572160180009    1.23749680215171
H         0.24782489731088    1.83473102507494    2.08234971986689
C        -1.75078222099651    4.58099692830783    1.59481085140603
H        -2.07773751906710    5.44971333732337    2.16066918538121
H        -2.61984583363130    4.05978326977954    1.20064554446394
H        -1.16350250928552    4.93599000179724    0.74947846916440
C         3.97717836817645    3.95480221820753    3.86722651844570
C         4.09847429556954    4.92501583176363    4.90038875448792
C         4.67551504342891    6.14872506059233    4.60266478612025
H         4.76733102470842    6.90793523485817    5.36068799645421
C         5.14617560509892    6.43824277060476    3.33825427432297
H         5.58202584242466    7.40386082591617    3.12828591456069
C         5.07148115763560    5.48054373396341    2.34762256714536
H         5.46709882098045    5.73029550055121    1.37774142020400
C         4.50857241561177    4.23521585488775    2.57759777506298
C         3.60538121603842    4.64060239820902    6.32133673762813
C         4.27512664471653    3.37305725192960    6.87048786161541
H         5.35785959538195    3.48298476512172    6.84748059679787
H         3.99901278957037    2.49711745945743    6.27986792826891
H         3.96480430236907    3.19637320114643    7.89903657552566
C         2.07980808259002    4.47306149668868    6.31934471006514
H         1.78020995062017    3.62058489109194    5.69731070894645
H         1.60512055681129    5.36909672440090    5.92394908148148
H         1.71843601675885    4.30576812635311    7.33283528820450
C         3.93025148314622    5.77458035383372    7.30447596408641
H         3.58845917217276    5.49011392490425    8.29803265502142
H         3.42300934235912    6.69638480876895    7.03080257994480
H         5.00098858353264    5.95571350832862    7.35775016167392
C         4.49410958586668    3.19121357465621    1.45733606761050
C         5.24368174088706    1.93567613966646    1.91853539951901
H         6.24513545582605    2.19565664578269    2.25490038331298
H         5.32888749040691    1.21992196008928    1.10173806714162
H         4.70984702617020    1.45763546632648    2.73814552252313
C         3.05329596894818    2.81637850813619    1.08895057800089
H         3.05014141929434    2.13054081283942    0.24180861065569
H         2.49289338319303    3.70784123851452    0.81601232373205
H         2.55458869478852    2.32615992367585    1.93590025455699
C         5.17514003486547    3.68359357159836    0.17234973717102
H         6.21620267444426    3.94034917257621    0.35149129235023
H         4.65938709087196    4.54419403242903   -0.24698969787919
H         5.15151559456462    2.88717735393036   -0.56998557888995

