53
CSD_code = DIFRAL | q = 0 | S = 0 | Stoichiometry = C14H22CdN8O8 | MND = 6
Cd       -1.64492283775450    6.84890504124972    4.78181164280887
O         3.24155272626540    7.31439277708858   -0.31200262735217
O         1.35975168456437    5.76171440782696    3.53469956800221
O        -1.00367753590897    4.66613602486430    4.15883582736005
O         0.51746408789563    7.08853762245747    5.73599810707615
N         2.26328865044616    6.55351674381302    1.60057493028618
N         1.22469967936933    8.17306961978445    0.24033254905480
N        -1.00672048704653    7.62133013839290    2.92109236530623
N        -0.92707406748229    8.93070591573688    1.07671487152003
C         3.41027097493753    5.69561368583243    1.84502690253546
C         2.30175946827325    7.35410542197538    0.45434582603813
C         1.21893115430090    9.04799238549710   -0.91301761321081
C         0.18706213926883    8.19019490365557    1.11997432862024
C         0.17023632844497    7.36492060114055    2.25427802805989
C         1.25389176127650    6.51448966381112    2.53618472994033
C        -1.59212980793492    8.55644667894122    2.17175859510046
H        -2.53434329070334    9.00611236152752    2.42991217969145
H         3.85445471112567    5.94481036237574    2.80874589587336
H         4.12649588122957    5.85653762749569    1.04340125836488
H         3.09165286441852    4.65321131425477    1.86517676000005
H         0.18343188298379    9.26370432394615   -1.16413727014471
H         1.73904981570546    9.97981583423801   -0.68428949736112
H         1.73054750378332    8.54963037038350   -1.73487778555192
H        -0.07918601677947    4.89500347508755    3.90536080148415
H        -1.43163163373181    4.32715178201662    3.36613914504761
H         0.96970101283338    6.63182133117346    4.99094750341313
H         0.65605192915009    6.52214167069055    6.50261627300192
O        -2.29054755033309    9.03031510427380    5.40626578572386
O        -3.80510970173331    6.60433895072150    3.82090131774884
N        -2.28541593231267    6.07820835350823    6.64263368383671
H        -3.21593708436849    8.79981753037825    5.65534808378469
H        -1.86683439017981    9.36877693269020    6.20153272171370
H        -4.26070483195142    7.05986365154193    4.56451640361614
H        -3.94184162344137    7.17078483119384    3.05394686715718
C        -3.46502147108573    6.33289359309694    7.30546073507275
C        -1.69990098500697    5.14605114881084    7.39552908593692
C        -3.48314077034696    5.50966519007233    8.44125398251056
C        -4.55005859188565    7.17977354188318    7.01859776421474
N        -2.36714503540659    4.77229316683302    8.48937103290022
H        -0.75569725030452    4.69846626596505    7.14124048014388
N        -4.52339902830867    5.52575885297937    9.31779731574797
O        -4.65466950645970    7.93076229271575    6.01854061091062
N        -5.56263886493791    7.13914144717385    7.95073774257450
C        -5.60242082815141    6.34075477610752    9.09844925274818
C        -4.51871241682708    4.65347280493588   10.47315437151469
C        -6.71179667031773    7.99242504729737    7.70044295989579
O        -6.54483448567323    6.37908166519339    9.86166935711378
H        -3.48339473408415    4.43978293061086   10.72676995264315
H        -5.03719065427237    3.72044338716589   10.24558748830670
H        -5.03258529448246    5.15302458862937   11.29290797571342
H        -7.15319601610275    7.73810605536168    6.73677986270445
H        -7.42922158491933    7.83227147704539    8.50114508219901
H        -6.39639327601027    9.03571432856945    7.67691678857740

