135
CSD_code = DIFSIX | q = 0 | S = 0 | Stoichiometry = C59H70O4PSc | MND = 4
Sc       14.52578677960472    4.41849692938484    2.59614554456178
P        11.90292764975225    6.83957675370216    4.65080174283707
O        13.81987988290498    6.05377500001699    3.84177226699951
O        15.17729564425653    4.62843044919377    0.82892863146203
O        15.67533627704321    3.34283264503836    3.63632922746546
O        12.71446279377671    3.88800626637953    2.16693660252322
C        14.47230272429088    6.83586100213981    4.82633762651579
C        15.65835595415155    7.63584095342080    4.27620601366126
H        16.50415894242244    6.98242341924970    4.08179194915600
H        15.96238420651647    8.38472641081094    5.00560672253703
H        15.37807540356492    8.13813874920216    3.35219617789167
C        14.93537641306924    5.97787829525757    6.00893525185767
H        14.07777527589878    5.51408888178744    6.49220722238584
H        15.47151378524569    6.58760878126537    6.73354192298648
H        15.59543706705221    5.18792733134577    5.65358110621924
C        13.35211753797253    7.79447297963902    5.26104225068111
H        13.39009777818110    8.72854074249964    4.69398078597280
H        13.30841282713707    8.03153404632406    6.32451708813104
C        10.51449186893481    7.75657439234178    5.47564744931793
C        10.60049403734350    9.13435488998486    5.64754591026520
H        11.48743322633841    9.66490869499659    5.33303691960560
C         9.55697586127543    9.84710974156688    6.20996881256565
H         9.64490135099468   10.91611464681777    6.33832778427846
C         8.40234641994770    9.19349694677044    6.60437018399895
H         7.58872077134943    9.74813439795475    7.04707903496517
C         8.29545516299900    7.82580614484206    6.42072863947394
H         7.39516009730990    7.30794733515825    6.71695654147702
C         9.34018771639580    7.11612066020338    5.85715745470364
H         9.24011834761019    6.04892391717927    5.72220071979416
C        11.40229853762923    7.24693664691982    2.95624830022775
C        10.08638829942203    6.97212735233309    2.59512108985553
H         9.42380030203559    6.49229423421013    3.30005576174595
C         9.62637500339554    7.30962280528895    1.33728468916351
H         8.60863606845841    7.08010121940477    1.06015313791789
C        10.47157430061452    7.93698375205770    0.43678056594071
H        10.11263081176121    8.20130924433344   -0.54648052737715
C        11.77535776018020    8.22740977800905    0.79934244353939
H        12.43134354850642    8.72301929146365    0.10028164842478
C        12.24340671829799    7.88167427686141    2.05537118273966
H        13.26306048910691    8.09651981662613    2.33564365237543
C        15.84583683180793    4.52676612805728   -0.32119132517096
C        16.55908822638393    5.64917781569535   -0.83017301643478
C        17.34213078648986    5.50604029757761   -1.96346498735216
H        17.90599505263398    6.33994813864771   -2.34669582813411
C        17.43266977516170    4.30265881047392   -2.62976772005435
H        18.06570067150437    4.20499281916034   -3.49942487267176
C        16.68334030092813    3.23207010840700   -2.18761378488790
H        16.74638892756249    2.31404540520539   -2.74656437816737
C        15.87302308440741    3.31160946283402   -1.06649703192692
C        16.48102442451880    7.01002532816342   -0.14025878386868
C        15.01342510161177    7.43603755606188   -0.00746702404286
H        14.45185157625396    6.71452941995663    0.59004004288466
H        14.55693728435214    7.49410469568054   -0.99401931639094
H        14.95033177581353    8.41721562551152    0.46373388598879
C        17.13517923880271    6.91321749984047    1.24187771480796
H        16.58470159172543    6.20280577583421    1.86796904746978
H        17.14883804999051    7.88860980693235    1.72682340987797
H        18.16125487954610    6.56681054009744    1.14063027904719
C        17.20189011356206    8.12643891580170   -0.90940226988837
H        17.05486688898711    9.07153772189022   -0.38768781819857
H        16.80347815857699    8.23302235835580   -1.91539337993635
H        18.27202540950250    7.94376138174647   -0.96589828599736
C        15.00498710535071    2.10864380718952   -0.69267422784276
C        13.53802440964693    2.55401678599411   -0.67319127795671
H        13.39566210495653    3.33153137449390    0.07382290344837
H        12.88588389442447    1.71710746641657   -0.42744189234800
H        13.25240071525434    2.94330434627893   -1.64947524125885
C        15.40629597075542    1.55023320106008    0.67711259118298
H        16.45175872010161    1.24831546127864    0.67376141696767
H        14.79807759459538    0.68029769063922    0.92018775947282
H        15.26154420515551    2.30366609292974    1.45803044260224
C        15.10909017553153    0.94907406660346   -1.69453281163267
H        14.82342366115551    1.26220980720346   -2.69596312090189
H        14.42842141247347    0.15746934961842   -1.38556292016400
H        16.11276247055002    0.53144409286797   -1.72000426883914
C        16.36438501072773    2.28780315740856    4.07911733176996
C        15.70182460978388    1.20287435748350    4.72271358421674
C        16.42687245325846    0.06904561962703    5.05286182387424
H        15.93689313730566   -0.77786508253885    5.50215287962867
C        17.78299362574064   -0.02167365197622    4.82219259138524
H        18.32228965251029   -0.92281061503109    5.07435563544714
C        18.44608854616001    1.06436541710031    4.29182043935105
H        19.51123136920924    0.98551005023030    4.15611044875847
C        17.78055980085715    2.22481912867242    3.93078694680463
C        14.21272903279752    1.25014864743092    5.07237375775994
C        13.36732327340608    1.11239655512071    3.80075637180733
H        13.57129741491161    1.93217787959460    3.10604434720971
H        12.30664650220853    1.12778346317065    4.04971204967633
H        13.59441500559573    0.17129408559663    3.30256218178421
C        13.88904234332026    2.56724994294390    5.78817382532692
H        14.61191195485183    2.74778332411830    6.58236049918783
H        12.89673654677972    2.52100534439723    6.23079118131964
H        13.91262285316457    3.40414709625834    5.08689178497884
C        13.78851466035970    0.12123073266585    6.02576747057774
H        13.85701614589921   -0.85427131512419    5.55111911737099
H        12.74922890474468    0.27296218041099    6.31333251372538
H        14.39271273197769    0.12374949513672    6.92989166691364
C        18.59408911158765    3.38737118587166    3.35947665347891
C        20.11122763551979    3.19949214979596    3.50831125987974
H        20.61256695003076    4.10531712874839    3.17065396618153
H        20.47476045039758    2.37746961808245    2.89722290622000
H        20.38924935656831    3.02695696620232    4.54561883616268
C        18.29125710054781    3.51806173788836    1.86353811822604
H        17.23923409813494    3.74800398349797    1.70801010494226
H        18.51920257021741    2.58436058923886    1.35385894796496
H        18.89342399340060    4.30523063515601    1.41388226142993
C        18.24132171010480    4.68496700147793    4.09615084513124
H        17.17797381802306    4.89262135204501    3.98788192308377
H        18.80874197771041    5.52054659866705    3.68852976753695
H        18.47393496130693    4.58876753814891    5.15567068071235
C        11.53570461117184    4.13231966045445    2.66197410587111
C        11.35722558536976    4.31099326848020    3.98233236209314
C        11.49135061197075    5.08275602789180    5.03749015112629
C        10.34872719267182    4.05779525313750    1.78002246522556
C        10.48482467322715    4.30359943254489    0.41723008583713
H        11.46439464693202    4.52517553472509    0.02206140649642
C         9.37808477652620    4.27726152767839   -0.40954630406267
H         9.49310638106905    4.46691464943697   -1.46676589409765
C         8.12365506330909    4.00995860155689    0.11375948524554
H         7.25905091624908    3.98748423534735   -0.53359306615975
C         7.97988134172829    3.76754147328546    1.47097560482110
H         7.00247818351046    3.55538669580458    1.88031835283326
C         9.08444979739690    3.78849055627169    2.30042653496323
H         8.97833790992246    3.59006032002249    3.35786864433715
C        11.23811677699224    4.69119305363156    6.42137889566003
C        10.63926810675311    3.45764837998768    6.68718573824164
H        10.37433034670267    2.81942533061389    5.85637699768759
C        10.38968854696330    3.06506408032754    7.98686592426062
H         9.92834582617477    2.10749357656065    8.17938874358124
C        10.72684922357375    3.89594750975936    9.04439576781106
H        10.53007106111501    3.58791306810381   10.06014755879901
C        11.31238198282910    5.12458950777228    8.79121353594262
H        11.57311817555502    5.77904715456505    9.61010802723134
C        11.56366289694372    5.51872905426964    7.49030295844332
H        12.01251182325695    6.48433077351532    7.29738375936442

