49
CSD_code = DIFTER | q = 1 | S = 0 | Stoichiometry = C16H20CoN10S2(1+) | MND = 6
Co        7.87081906153440    5.67144540274150    8.80947630044278
S         7.03362220135562    4.58521082588671   10.62383087324332
S         9.96472797767250    4.90843349192289    9.26209672893354
N         8.62582788745985    6.84295448516526    7.49083186218100
N         7.70437523750153    7.10294008635913   11.22965329214850
N         8.04212519848729    7.11407951489592    9.93513978213079
N         6.07314366198805    6.03461943191699    8.24746652446484
N         8.78277906199209    9.32063337321851   10.14473153615703
N         7.72324683769444    4.19115282885020    7.73007962823928
N         8.68878789695785    3.27967201125250    7.56637810267620
N         6.83012818803271    5.82223038933176   12.92976212852376
C         8.60009032791921    8.17795703192440    9.42282668116414
C         8.91740021991499    8.05278934376244    8.01765066795225
C         7.22482427924881    5.96725564523392   11.66462236005533
C         5.61006867604099    5.06667795992249    7.42593719790688
C         6.56127268864898    4.01012466610456    7.16194908089337
N         6.31470554405332    2.95536398438528    6.33302143269258
C         9.48437406878484    9.06538225296086    7.24059819789626
C         8.89641645361495    6.61549514457196    6.21063770021478
C         9.46796032676567    7.56751821175476    5.38602336371937
C         9.76448366811348    8.81924283240554    5.91188116478138
C         9.78458369132833    3.50985570384786    8.24157647669288
N        10.83308769334745    2.69111961806763    8.16094914760482
C         6.99955874670935    6.82400933976188   13.95149995943251
C         5.27277247109309    7.04464738269142    8.56869958126719
C         4.31448899508736    5.11427542754652    6.90641115628654
C         3.97594029474257    7.15013228588685    8.09978088177255
C         3.48830988263581    6.16512821528470    7.24935161783701
C        10.84439355385240    1.44834233572365    7.43212910786675
H         9.69305761688004   10.02782177567825    7.67854263287002
H         8.65610663166865    5.63386364933443    5.82605951258694
H         9.67519225190488    7.33099341451212    4.35572245614945
H        10.20722428223803    9.58428481177396    5.29380976951134
H         7.91577841434369    6.65459383635883   14.52309162902373
H         6.14863527282256    6.79411631359484   14.63014890555361
H         7.05357546714763    7.80008168805771   13.47594373719620
H         5.67598177679331    7.79729189451887    9.23214055769762
H         3.97129596472100    4.33845934483026    6.24161613016387
H         3.36390964156768    7.98553963587506    8.39625559315359
H         2.48190014850187    6.21949489405601    6.86532987095392
H        10.71797921991657    0.59742559664949    8.10615221315373
H        11.79269693193715    1.34372338947681    6.90567759742845
H        10.02808042058053    1.46017130769932    6.71440320965882
H         6.55194966407602    4.89541149761653   13.21513144522455
H        11.61574447743043    2.89326278108835    8.76475095155383
H         9.51784022796728    9.95123776508521    9.87328900388385
H         8.66099638993444    9.18915196619485   11.13928905533224
H         5.36614332124623    2.63954486640094    6.22287886293678
H         7.01619708574560    2.23014034782724    6.38737433079491

