124
CSD_code = DIFTEU | q = 0 | S = 0 | Stoichiometry = C51H67BrO3PSc | MND = 4
Sc       12.28652350235824    1.98437936485099    4.54281309807207
O        10.65130902314455    1.22692405253103    3.93345400959639
O        11.98352084751035    3.79793900695939    4.76161949704318
O        13.89073955963010    1.43377272293405    3.74690280596765
P         8.60152175566622   -2.11511073184239    4.96701037317649
Br       12.26193615600066    0.62656335086836    6.70274745310146
C         9.45835034571022    0.60577830496865    4.13246472654131
C         8.55184273362174    1.40520619085535    5.09127723020241
H         8.99884628072398    1.45091074901645    6.08306172150186
H         7.55870910424534    0.96700962562320    5.16042801670407
H         8.46239227855941    2.42123980535636    4.71266134799888
C         8.70821782922416    0.38468434929301    2.80378355146061
H         8.37198193235392    1.34409210646219    2.41929134912759
H         7.84478641483893   -0.26617841622900    2.95289571666109
H         9.37881840750969   -0.05486989739772    2.07000804348063
C         9.79876448900223   -0.78474063013669    4.78860191561202
H        10.14573584383124   -0.58504473091617    5.81191446710909
H        10.65528170612346   -1.21063251476181    4.25069714817364
C         8.29846809198369   -3.08986729129402    3.47507840427724
C         7.26536385344572   -4.02483727744444    3.48049485700689
H         6.61487508913748   -4.10441803462406    4.34144528386310
C         7.07954421462153   -4.85073543400574    2.38756191165672
H         6.27678602862100   -5.57254982424668    2.38989522670366
C         7.92795101249825   -4.75722277389830    1.29489992132517
H         7.78184033297383   -5.40515782541801    0.44425192915270
C         8.96610183728178   -3.84022444605920    1.29649835803104
H         9.63239574714013   -3.77653007120869    0.44986175262102
C         9.15650653913214   -3.00785675627812    2.38511915779221
H         9.96868291347394   -2.29791010452867    2.39077307731036
C         7.03348035178844   -1.55748259715330    5.67225035481111
C         5.88282227893727   -1.44661397660188    4.89788029760619
H         5.90241505309262   -1.72275503834402    3.85274426426399
C         4.71553885469364   -0.97144334770944    5.46876063261504
H         3.82305825410330   -0.88465065141047    4.86785717592804
C         4.69401099653733   -0.60117207360575    6.80380259565693
H         3.78173769186714   -0.22867288674984    7.24369911072401
C         5.84396342152210   -0.69782954471173    7.57199482789003
H         5.83020561877802   -0.39628845772405    8.60793585065748
C         7.01475902062003   -1.17281934054085    7.01096402115270
H         7.91644431705647   -1.22541456763193    7.60343691113757
C        11.82231297400164    5.11089497975746    4.81741614695170
C        11.82438863230749    5.76784740130035    6.07904505058049
C        11.74230266019002    7.14891754290588    6.11159751441948
H        11.76228464008440    7.67522028296188    7.05187066773074
C        11.63575426301787    7.89230663725725    4.95280409746917
H        11.58757266497517    8.97073729400972    5.00140625212858
C        11.56828792478752    7.25019870424670    3.73256109888935
H        11.45585247893566    7.85875332159336    2.85043746044807
C        11.64337094669785    5.87049074643883    3.63003458223984
C        11.89437300404535    4.96163073222983    7.37670440651510
C        11.80154879083978    5.83653628299870    8.63405965600633
H        12.64188077395562    6.52353874556765    8.70204384394322
H        11.82224821999467    5.19440973004243    9.51318159234346
H        10.87379778684251    6.40407699348837    8.65357023805061
C        13.22574276133991    4.20147398429573    7.45921352409199
H        13.35515367765499    3.54066029906383    6.59877324817786
H        13.26240996125720    3.59884918083358    8.36620652256919
H        14.05543458032638    4.90662645027963    7.47176756360920
C        10.71316016936864    3.97986205802929    7.42893896132310
H         9.77413525140429    4.53007729495966    7.47555257824003
H        10.79110784636875    3.33933096311046    8.30664846372842
H        10.69075515285684    3.34865645524715    6.53874495045171
C        11.50380648564456    5.18851692255844    2.26632649256488
C        12.77860681054591    4.41042800306062    1.90999692999265
H        13.64702537881862    5.06424075887584    1.97026923081405
H        12.71006084360078    4.01915601977793    0.89502897607852
H        12.93095477405434    3.56663647583928    2.58930086991265
C        10.29767177414423    4.23700582980572    2.29112860574564
H        10.44001351795419    3.43870976626845    3.02129834377176
H        10.15613472646767    3.78213825116451    1.31052072391307
H         9.39429118430287    4.78717627694959    2.55290308397699
C        11.26033753482912    6.18910527901027    1.12677163486658
H        10.35428383807824    6.76685452271068    1.29482206169118
H        11.14012573296086    5.64320030803674    0.19182223827592
H        12.10198653264033    6.86778610828375    1.01033255144320
C        14.96270384538344    1.19427570916469    3.00416344247723
C        16.21524016165702    1.78936124265193    3.32706529955406
C        17.29424321515878    1.57085939247743    2.48765705838387
H        18.24734694708963    2.02701680491587    2.69662602250264
C        17.19412791275009    0.77408492948644    1.36511195091368
H        18.04934782496811    0.63021498241128    0.72073319918193
C        15.99831985943940    0.14684651563655    1.08397166773943
H        15.95643998271301   -0.48977320658063    0.21566876707242
C        14.88027687053602    0.32296989965387    1.88251180608220
C        16.38936254400757    2.65656167098255    4.57523529462556
C        15.98583663834210    1.85818432937588    5.82236750829127
H        16.05216122240252    2.48143095123147    6.71274694926510
H        16.64724162337731    1.00236683928134    5.94679761136510
H        14.96717960226241    1.48466191010505    5.73597923397322
C        15.54308377382047    3.92994797933285    4.44501369829012
H        14.47992461916273    3.69507259573199    4.39339408861441
H        15.81851951794583    4.46855468600297    3.53966641466283
H        15.70620780245782    4.58472470862306    5.29969317956263
C        17.84028463967370    3.10876116280566    4.79583219293119
H        18.18222946164767    3.75832786038108    3.99327873370753
H        18.51198513075451    2.25751523498965    4.88055410928721
H        17.89533841100784    3.67240527949930    5.72588555463460
C        13.58690894878510   -0.42672608337301    1.55393445856455
C        12.48331143191300    0.56917492777453    1.16852819721101
H        12.18220998791502    1.18302859387183    2.02186006881578
H        11.60271716908001    0.03812260395530    0.80430407193279
H        12.84015143901980    1.22579291021908    0.37656941728555
C        13.16954999672011   -1.27212507270204    2.76659415872437
H        13.97582324060737   -1.95051120776544    3.03836459589807
H        12.28781732789176   -1.87147567790953    2.53326591450860
H        12.95136546699840   -0.63982368533771    3.62897190755232
C        13.74239783432363   -1.39939641610016    0.37473669690998
H        13.97147758448776   -0.87089372379456   -0.54736402224465
H        12.80465518802671   -1.93526874495211    0.22666983492150
H        14.51964838578577   -2.13439367002243    0.56984536442497
C         9.35774695711003   -3.30327103511862    6.14957661425318
H         9.53687370478904   -2.77735735214323    7.09015849370040
H         8.65324818910715   -4.12339944182404    6.31302346084575
C        10.65634993975290   -3.79431156837575    5.56855013833949
C        10.66918960888906   -4.87514809966389    4.69431165148657
H         9.74690088686893   -5.38877997963476    4.45800136518806
C        11.85867379564820   -5.30664137957565    4.13451164687574
H        11.85630383778055   -6.14670166459404    3.45592436378117
C        13.04528527447494   -4.66417999703795    4.44593619535894
H        13.97173928302617   -5.00089256127016    4.00605405984444
C        13.03902549657776   -3.59544851008824    5.32618435518569
H        13.95701677032498   -3.09111600574524    5.58263627720344
C        11.85101613822752   -3.15721019464529    5.88535941197541
H        11.86659048459294   -2.32023943241607    6.56829896144453

