60
CSD_code = DIFVEU | q = 0 | S = 0 | Stoichiometry = C29H27O2PPd | MND = 4
Pd       10.72225790423814    9.04758560676937    3.12128806713992
P        12.24870161401896    7.57652765351923    3.75372048833310
O         9.12920925645281   10.11602355120783    2.31580140519002
O        10.46543931187713   10.21759497518478    4.91857266694171
C        11.02747092041986    8.07549709253569    1.39645316735688
C        10.85546579451076    8.75517089223103    0.17582201839603
H        10.54018915241670    9.79390428395253    0.18462935168180
C        11.08156264212893    8.11855119051288   -1.01377726852174
H        10.95912418656138    8.64350863450192   -1.95144871939436
C        11.47347923519880    6.76479535580011   -1.04867244519828
C        11.69034008883287    6.09417962028509   -2.27008963834468
H        11.55168370821534    6.64374239192065   -3.19065679299455
C        12.06282686105416    4.78021677000532   -2.29638266004728
H        12.22584386764093    4.27376613427720   -3.23654505570582
C        12.23046142842011    4.07778835430443   -1.09423475993131
H        12.51678509498728    3.03612532363485   -1.12413279059228
C        12.03122404260305    4.69868972742679    0.10708393317794
H        12.15548861718603    4.13484296964989    1.01969224578139
C        11.65319226886649    6.05869185188448    0.17340027265247
C        11.44673259186467    6.75589617942650    1.39084108251584
C        11.64720660586359    6.13072206041115    2.75174378031249
H        12.36093373397235    5.30109162816719    2.76169560480860
C        10.29679749022274    5.69088227499550    3.32385019358215
H         9.64260380051211    6.57507211300084    3.40519820532738
H        10.41092314800458    5.23853793121710    4.30829160410364
H         9.82272515818287    4.97202554541792    2.65749278851235
C        12.24381694012195    6.95881867747886    5.46328352606370
C        11.14235947833362    7.29057947006739    6.24687678539093
H        10.37751780021691    7.93831640005403    5.82573917034806
C        11.04347352664877    6.81102481543219    7.54031963487010
H        10.19193583370298    7.07075485014745    8.15200455942792
C        12.04154860920232    5.99688661751970    8.05246550686450
H        11.96729398038479    5.62311349192172    9.06315497098341
C        13.13718106793717    5.66135749867788    7.27226658560084
H        13.91165701978381    5.02517307549647    7.67545843184906
C        13.24203173463049    6.13854313362707    5.97809371826727
H        14.09615947366638    5.88205926844471    5.36659785814450
C        14.01135226223055    7.75520790398685    3.36266771480959
C        14.59376960823511    7.24461931635362    2.20769252860006
H        14.00038716798327    6.68317072760239    1.50179534750305
C        15.93698887991767    7.46720442526348    1.95735781936850
H        16.38672306665635    7.06504379246844    1.06138630860974
C        16.70241764916116    8.20360311669035    2.84595245307836
H        17.74991387324035    8.37332254428141    2.64523542238519
C        16.12162566737835    8.73115149244184    3.98909062342537
H        16.71514363596795    9.31472631712642    4.67753393645599
C        14.78151870116301    8.51328118644090    4.24387087297876
H        14.31352688874043    8.92661780640913    5.12840691450434
C         7.38806152191151   11.68288442271831    2.02959097344963
H         7.62200551993428   12.72711480101921    1.83242954349306
H         6.44225855513069   11.63946108690629    2.56462067490904
H         7.29582279951583   11.15068354291093    1.08608862900451
C         8.49222715476708   11.05501227768451    2.86257979921726
C         8.68663303913262   11.58689948910027    4.13983236535763
H         8.04528948198162   12.40363688349316    4.43571903116984
C         9.64105535428959   11.15521216015385    5.06705869323927
C         9.67363584048128   11.88606428416720    6.39813835965045
H         8.71604482768259   11.78126187514442    6.90415434641989
H         9.86048436004625   12.94558606638028    6.23790848271091
H        10.46037015550658   11.47117707006910    7.02389166677350

