60
CSD_code = DIFVIY | q = 0 | S = 0 | Stoichiometry = C29H27AsO2Pd | MND = 4
Pd        8.32489169715563    9.22665510774783   11.52050530365702
As        6.65583560395732    7.81713100715764   10.76385032391091
O         9.98858518081564   10.13427096307971   12.34322837681912
O         8.65615853047688   10.34801019825001    9.70944384008263
C         7.97513503163396    8.23638000869528   13.22702814821281
C         8.13347024529329    8.89978198728720   14.45695917349937
H         8.44283747377612    9.94062922225761   14.46288121743001
C         7.89943298482136    8.24537104424055   15.63509352933910
H         8.00855596368149    8.75740316102486   16.58149299437544
C         7.51720119923151    6.88875692586097   15.64456772408795
C         7.29617209151241    6.20056658248768   16.85556524077603
H         7.42170913585311    6.74051225649059   17.78373070115700
C         6.93757991474629    4.88274139051501   16.86286879479780
H         6.77244387948554    4.36265629882912   17.79520167593753
C         6.78842467830406    4.19464022289902   15.65023360600087
H         6.51435613360930    3.14931953680197   15.66367880527508
C         6.99001881981370    4.83322591561317   14.45860596458555
H         6.87824205583304    4.27682352654978   13.53984605570039
C         7.35342026434447    6.19824312625144   14.41065832130907
C         7.56244919284521    6.91326361458007   13.20130635474486
C         7.37573816194172    6.29903815858175   11.83496218261534
H         6.70390880536207    5.43219069895916   11.83402834701981
C         8.73562750384031    5.92441793764797   11.24179565756971
H         9.35910708064479    6.83628673183875   11.18107007394423
H         8.62261440978862    5.50140972493700   10.24006210552161
H         9.24789165809589    5.19998398069041   11.87494343502786
C         6.69804820905158    7.11512318338829    8.94650705664900
C         7.79298784238388    7.47074424751694    8.16482525810531
H         8.52417735713900    8.16421871846514    8.57722567438825
C         7.93480872170733    6.95634112898532    6.88769620552911
H         8.78391976934712    7.23532236809345    6.28047417722710
C         6.98317490055881    6.08233674753769    6.38692659909968
H         7.08970469110897    5.68197360163919    5.38937819495668
C         5.89377499072286    5.71926230900178    7.16303094108138
H         5.15611373142751    5.03425532680268    6.77015616361053
C         5.75017293957744    6.23116104052092    8.44124117893062
H         4.90032679367020    5.95029187194069    9.05490889058196
C         4.75538446238192    7.81341629499151   11.18812864699616
C         3.85866655809043    8.34267889976165   10.26189551343932
H         4.23947959769280    8.71074683484786    9.31163533955549
C         2.50620731210182    8.39655720581850   10.54705329293307
H         1.81586518718411    8.80270262820198    9.82177087241809
C         2.03823494155138    7.93346389091316   11.76655834363612
H         0.98248531302047    7.97491857609680   11.99020037235210
C         2.92564849456658    7.42581349389315   12.70080913361497
H         2.56273657566549    7.07409142931453   13.65570286381863
C         4.27992679932750    7.36935980772759   12.41709821916157
H         4.97536410343611    6.98468789327116   13.15463759819893
C        11.83724237660609   11.57098901105110   12.61290480588130
H        11.70538251286336   12.63892712435284   12.77301480665765
H        12.77904886621982   11.41648991196177   12.09116617160717
H        11.86866404264840   11.06274175812015   13.57334593382600
C        10.68594228092077   11.02423470539762   11.78607948213057
C        10.53226142437915   11.56751315602463   10.50777428467885
H        11.23678873946101   12.33234990933896   10.21630480161173
C         9.55635511695556   11.21451356289084    9.56921176726185
C         9.59830884640498   11.94391221282142    8.23802414702737
H        10.55890946012418   11.78294072233929    7.75330847899272
H         9.47074672562150   13.01261745272519    8.39553225106603
H         8.80173261837716   11.57719364467088    7.59486458045270

