83
CSD_code = DIFVIA | q = 0 | S = 0 | Stoichiometry = C32H46N2NiO2 | MND = 4
C        14.56343491982809   12.97960124530020   16.04895878697885
C        15.69640462085423   13.87438440337779   16.19415866818998
C        13.41555966860696   13.06560080082144   17.01143722509311
H        12.61774189176229   12.39069964224769   16.71014502323077
H        13.02479252361474   14.08248805032707   17.03639207162988
H        13.73065146285378   12.81055546771168   18.02276530574082
C        15.71610221307808   14.87973349822584   17.30606834259066
H        16.66957256763112   15.40261830664373   17.32553633367811
H        15.56925687435831   14.37615738407339   18.26089826780293
H        14.91754308803517   15.61081755789760   17.18966444961313
C        13.57399773830868   11.28081927142783   14.71694172056950
C        12.79090076268768   11.53364890935603   13.57840226327838
C        11.79496845802121   10.63138532224377   13.24337734637513
H        11.16755087774029   10.81499062620087   12.38582503970595
C        11.60100048477906    9.48722533611301   13.99468804502016
H        10.82190653444935    8.78968879647131   13.72423860415729
C        12.41557501189457    9.21917048011574   15.08041745637762
H        12.26565150699749    8.30356560411077   15.62917544165397
C        13.40705762660157   10.10608879132712   15.47040754579903
C        13.07647790225358   12.77422467990962   12.76563632140002
H        14.16446330187970   12.96972507558375   12.83696038984024
C        12.72624247363916   12.61900348182463   11.28773496484564
H        13.16003240975205   13.44189097003028   10.72425342614909
H        11.64933966878436   12.63375712065879   11.13075528023661
H        13.12471230492616   11.68713078208744   10.89315058222850
C        12.34670346779689   13.98436930312929   13.35473793775998
H        12.58069762317581   14.87684691445692   12.77892940964055
H        12.64569948515054   14.15361019797104   14.38598183603777
H        11.26939472674063   13.82590363052646   13.32930009391080
C        14.35799936260370    9.80008780304365   16.60947598114620
H        14.52395520182094   10.71692896711607   17.18183968264534
C        15.71240928236180    9.36762903358664   16.03857586786623
H        16.40658548497625    9.13976568058190   16.84463512654347
H        16.14000449915110   10.17255442243068   15.43106416507386
H        15.59591217355788    8.48400532895942   15.41515941884741
C        13.83311802590473    8.74412582221283   17.58074605895115
H        14.49086275313516    8.68711502817637   18.44590945952648
H        13.80829510763077    7.76120562189999   17.11679706730418
H        12.83322862152550    8.99699796300891   17.92732024412771
C        17.75384091782342   14.57096145129461   15.24642723868395
C        17.60300266335826   15.90754394590700   14.83717614646195
C        18.74553121749359   16.68519627982596   14.70822013046535
H        18.65443679793134   17.71128683209840   14.38529853666571
C        19.99949846130478   16.17390834695135   14.98614505434299
H        20.87104485264468   16.80596495696911   14.89893909484146
C        20.13975089568443   14.84700921584895   15.35239103961428
H        21.12501274264321   14.45207790892432   15.54198390986196
C        19.03137071103649   14.02630117459114   15.46963011449621
C        16.25838355685621   16.47334535707199   14.43865794571841
H        15.47185571742096   15.77272777703550   14.72978582860112
C        16.18851271421224   16.60976247855609   12.91471099888554
H        15.23034730076160   17.03538840587917   12.62344019505221
H        16.28511884752180   15.63064900343532   12.45221189510694
H        16.98149416074561   17.25622469525012   12.54376102022727
C        15.97887839124310   17.81639110751651   15.11734102566074
H        14.94972712299470   18.11766721601382   14.93217056478129
H        16.62998272195371   18.59471004074252   14.72765824035285
H        16.13210541682827   17.75098313795727   16.19281157822109
C        19.14103551587917   12.56942657426636   15.84894826317720
H        18.27891034933181   12.04693452880637   15.38887301916849
C        20.41720059016230   11.91310427690275   15.32856851718780
H        20.35252900747587   10.83385209060332   15.45396206867064
H        21.29322861313193   12.25914053456430   15.87296824209547
H        20.54927903041752   12.13280572618805   14.27141556361290
C        19.02665974740996   12.40796750374706   17.36702407168129
H        19.07997941960215   11.35604702541141   17.63907527856504
H        18.08118098825529   12.80831342845710   17.72614240504410
H        19.83765203976819   12.93675257589636   17.86526386531994
C        17.67791443643380   12.71073804339532   12.28320707278941
C        19.12879597380330   14.46438778370638   11.68937545931532
H        20.17230521304629   14.55399297778660   11.39546010335666
H        18.90747271039163   15.15405245678553   12.50615404343357
H        18.47230267658471   14.68582209969740   10.84456486939394
N        14.58878075039837   12.19765751759898   15.01464089559887
N        16.65991793773473   13.71157856872382   15.34319865734611
Ni       16.24586036301580   12.25483468156670   13.93398653508819
O        16.70932875959714   13.43325820639533   12.03244036380470
O        18.95168226462532   13.12433745674055   12.11269315720438
C        16.32975818362377   10.71851617182448   12.66885965409190
H        15.59428637560432   11.09025369594315   11.95432722219231
H        16.24620704146894    9.66511996468497   12.90854559124432
C        17.57186979392179   11.33997039961270   12.74040885208824
H        18.48046429899343   10.83261905762997   13.03627441891577

