87
CSD_code = DIGCUU | q = 0 | S = 0 | Stoichiometry = C38H44N4Pt | MND = 4
C         7.33303858020184   10.94913151090869    9.94302392457083
C         6.10748434889907   10.92195704355796    9.27674320551082
H         5.63921721430866    9.98433206100397    8.99686860854252
C         5.42077827809958   12.07822518276434    8.92862462880031
H         4.47373714814599   12.00303005362844    8.40864365536594
C         5.94595636702457   13.31536609554753    9.24295010318812
H         5.41728854284783   14.21980620477667    8.97336845437148
C         7.15502782105387   13.38623218687595    9.91057388774512
H         7.55586381225435   14.35842421461632   10.16073227063584
C         7.84247922935061   12.23025898082946   10.26034209924784
C         7.19626879615729    8.11640715931549    9.61012593607835
C         6.12665945223624    7.31702973375205    7.80897316378416
C         5.33304805155421    7.05990177638920    8.94606556335423
C         4.10856086731057    6.41852814118676    8.82721621846186
H         3.47805408489369    6.22466367473517    9.67951981563812
C         3.70275737672149    6.03029465565040    7.56457074471137
H         2.75309343002887    5.53110728146578    7.44556613424432
C         4.49261298628552    6.26891885349612    6.44525637647237
H         4.14547545074216    5.94726717206148    5.47508892469743
C         5.71086932274406    6.91272630518726    6.54836973536041
H         6.30585921600851    7.08746769008244    5.66717445248706
C         8.31089824926510    8.54929270835361    7.46121447466356
H         8.95799101233976    9.07291962937452    8.19123648397752
C         9.10945802162050    7.46199611284733    6.74474472970990
H         8.54067899401356    7.03278840010030    5.92398252591129
H         9.36758978250451    6.66369649546769    7.43605220188915
H        10.02533540749643    7.88458795733095    6.34036267703753
C         7.77380905002255    9.60188729250906    6.49484322323662
H         8.60435120398002   10.05478742291739    5.96007254214502
H         7.25698084051967   10.38137548635064    7.04998612655240
H         7.08711664674602    9.17276875459776    5.77067768905943
C         5.59958272381675    7.61057693215195   11.40325663167046
H         6.43270636795708    8.09127706953511   11.93602131714968
C         5.38886876884812    6.20747035611209   11.96892300945303
H         5.19468970240193    6.26851694437317   13.03645542459898
H         6.27655506067969    5.59853977775859   11.80816207448578
H         4.54542838251230    5.71064045297708   11.49858403120349
C         4.36599731680324    8.49680939540814   11.56238499173452
H         3.51750496591036    8.10196169501152   11.01007564497516
H         4.58461222217772    9.49821802598430   11.19856637529475
H         4.09615614472868    8.56318076815383   12.61297396700988
N         7.24919432994805    7.97107549030812    8.26357531055990
N         6.03153896138976    7.56262413243466   10.02187895934066
Pt        8.48315446583631    9.38801211997378   10.61716359947349
C         9.63296813092981   10.94915681992620   11.29168836214353
C        10.85853211195764   10.92198018525409   11.95794438928107
H        11.32695438154575    9.98434698652539   12.23753251075853
C        11.54523343442797   12.07824906951637   12.30606007968687
H        12.49231389153469   12.00305338791440   12.82596901112354
C        11.01999746630355   13.31538911244399   11.99182537112854
H        11.54860653985349   14.21983253191322   12.26150813553719
C         9.81090016378200   13.38625204268111   11.32424616451873
H         9.40998973850926   14.35844478534230   11.07421281760355
C         9.12349016398069   12.23027339863899   10.97441416489505
C         9.76976005887579    8.11631560221677   11.62442241552656
C        10.83939485049813    7.31704520255144   13.42560680562010
C        11.63300276697606    7.05987772538606   12.28852161811962
C        12.85749604971359    6.41852131676854   12.40738567344992
H        13.48799251652134    6.22461819883663   11.55508307426726
C        13.26330047283152    6.03031958767291   13.67003969635876
H        14.21295132411164    5.53110980768914   13.78905160915332
C        12.47344604466081    6.26897422446397   14.78934847150593
H        12.82058071586082    5.94734020568803   15.75952252705855
C        11.25519418636726    6.91278797625261   14.68622185117981
H        10.66021043343565    7.08756142057572   15.56741465135116
C         8.65517780983904    8.54934694998813   13.77333933137899
H         8.00808919114067    9.07295954108790   13.04330170807555
C         7.85661218940949    7.46206506899488   14.48982184466657
H         8.42539319252277    7.03285897343837   15.31058324559626
H         7.59846030587904    6.66376172789076   13.79852519628868
H         6.94074758889885    7.88467870950272   14.89420753022874
C         9.19227669626874    9.60195767804086   14.73969183678276
H         8.36173568992101   10.05487949367916   15.27444522618823
H         9.70912614282884   10.38143234342566   14.18454967095498
H         9.87895001807928    9.17284352879734   15.46387797063483
C        11.36646338480252    7.61049208774230    9.83131674493587
H        10.53334042272246    8.09118002090974    9.29854310036170
C        11.57715856437818    6.20737034315549    9.26568818235936
H        11.77133326823558    6.26837664950721    8.19815159001616
H        10.68945793503034    5.59846949753032    9.42647749548601
H        12.42058705378120    5.71053908326007    9.73604643675198
C        12.60006129522290    8.49669939307317    9.67213211708406
H        13.44855435213624    8.10186086293066   10.22444633488807
H        12.38146577117573    9.49812164625923   10.03592227369383
H        12.86989606726599    8.56303527697644    8.62153740873842
N         9.71686171135132    7.97108089976920   12.97098761012425
N        10.93450690804873    7.56256123792987   11.21269583009580

