33
CSD_code = DIGDUT | q = 0 | S = 0 | Stoichiometry = C12H12N2O5SW | MND = 6
C         4.06412535998668    1.63050291508341    4.60008787965470
C         5.65541412762328    2.25482166326499    2.34480302151915
C         5.01849404448491   -0.26066552952447    1.22120064241950
C         3.40895852468637   -0.84510859455759    3.46157528001929
C         6.09832991528200   -0.16609941082956    3.84110004985799
C         1.40634304415749    0.73616629507856    2.13997273229144
C         0.09534889050626   -1.06239900720642    2.19295614930351
C        -0.19592312456822   -0.30343802220196    3.28358752811228
C         1.70485554650934   -0.85413732181828    0.27783241783806
H         0.95508086725101   -1.07286613388699   -0.48257745344990
H         2.29373920608832   -1.75326453412509    0.47196717236941
H         2.36259571418854   -0.06217144137626   -0.08179817054107
C        -0.43634495827598   -2.37011028507728    1.73779616655016
H        -1.18747359329971   -2.73098031036860    2.43311526635695
H         0.36588969636530   -3.10499230050910    1.68012775610069
H        -0.88823130854039   -2.28139101538388    0.75017905111671
C        -1.15295495441169   -0.51196435863734    4.39762926996318
H        -1.68601005171690   -1.44769003771758    4.26306000957997
H        -1.87807869687846    0.30035033988032    4.44042658059230
H        -0.62540424516424   -0.54619768470702    5.35030090279537
C         0.64437601409193    1.88209879032393    4.18830178236165
H         0.97082212769911    1.51041062661526    5.16124279476263
H        -0.34301643551982    2.33375613345962    4.28913945435119
H         1.34882781297877    2.63458827169149    3.83237092811631
O         3.77379228705886    2.15003391090847    5.57599529744886
O         6.25846790992838    3.16049438912236    2.01287614509946
O         5.26664394007559   -0.81372292349765    0.25316226458106
O         2.72188466012301   -1.71364785300038    3.76587343716705
O         6.98363463871986   -0.65823655172745    4.37676850141803
N         1.07383024167567   -0.39465896466311    1.48154337790518
N         0.61005684360037    0.81779331456882    3.22684213776797
S         2.52140294565670    1.90285583287537    1.62901460549481
W         4.56652300955067    0.67506979785589    2.92452702109284

