43
CSD_code = DIGFAB | q = 0 | S = 0 | Stoichiometry = C20H15N5O2Pd | MND = 4
C         7.80667324161990    3.84443729751655   14.02450747404755
H         6.91456783098443    3.81256609344865   13.40787622604945
C         8.77895827445336    4.78984332879623   13.77891768593984
H         8.65007651410389    5.49516795534322   12.97403749726992
C         9.91430352128133    4.81325094556922   14.58631663423125
H        10.69022798758854    5.54700866518202   14.42805745682978
C        10.02026166014189    3.87715755253380   15.58207212469766
H        10.87409363038312    3.82400951651848   16.23704957028800
C         8.99661258876174    2.92746658346894   15.78391259956107
C         8.50059291704690    1.02747233767344   17.08060631994035
C         8.81185862858602    0.14063951558528   18.20702123676050
C         9.84043375551362    0.12955044135649   19.12710001751088
H        10.61692836182745    0.87672634602407   19.09297199193683
C         9.83032788674529   -0.87307872960714   20.08905000586063
H        10.62038001048694   -0.91107832252991   20.82478635599103
C         8.82243111194787   -1.82744063435064   20.12490659392451
H         8.84538724111517   -2.59140431567543   20.88807345283519
C         7.78455138948282   -1.81581165111320   19.20096475839393
H         6.99520429566845   -2.54950795010771   19.22404963767097
C         7.79407100532399   -0.82146744356520   18.24405092464035
C         6.88095041873538   -0.49819252795049   17.14229154210023
C         4.89096036750577   -0.91040538933911   15.95522280713548
C         3.87496925576907   -1.88129556443378   15.82860938341222
H         3.92135007539281   -2.72842176517348   16.49275612138361
C         2.88534576937691   -1.73466573602611   14.89161040046167
H         2.10220564531416   -2.47117563009815   14.78990086734479
C         2.91880034332728   -0.60984663144768   14.06973693751468
H         2.17001234775499   -0.44879887018792   13.31125796560641
C         3.93254507226858    0.30844631493585   14.23820593322067
H         3.97451445230662    1.18995679708290   13.60736218119196
C         4.55281066592355    3.61499033549113   15.05919707816525
C         3.57053820250167    4.70717676003915   14.66512475381357
H         2.58285248789431    4.44568221743619   15.03781667863620
H         3.53913558021019    4.81649787532138   13.58464897061743
H         3.87046048604344    5.64292577394322   15.12949425963589
N         7.88402782095497    2.93809677858746   15.00766136064061
N         9.23340672640347    2.05341358820050   16.78789107569681
N         7.38033775788872    0.56783252578675   16.46383283103553
N         5.80093985730244   -1.17562326645202   16.91925977162826
N         4.89782805224000    0.18876147486430   15.15925194542479
O         5.07875721657269    2.94894823536694   14.10777906988102
O         4.81128265217569    3.40167430520788   16.24988608167738
Pd        6.32942689305794    1.63691486678512   15.19177341939821

