43
CSD_code = DIGJUZ | q = 0 | S = 0 | Stoichiometry = C18H18N4NiO2 | MND = 4
Ni        8.28405699221565   11.02896821372375    6.73371061003942
O         6.69573460763123   13.94061393518932    8.72247424978263
O         9.76955689143886    7.75213324364239    8.15087596644145
N         9.10134478872442    9.94906502253411    7.90496914101452
N         8.00844582301603   12.14204857039877    8.10921006984518
N         8.48189316335857    9.68945747893709    5.37821781440053
N         7.24421993212956   12.17975589259933    5.60895218298889
C         9.31949792766402   10.52534438558899    9.17249793321979
C         8.69061669725735   11.78665542221863    9.29000729122927
C         7.05406830874989   13.07321026705140    7.94895013030950
C         6.34292082954499   12.87238334203261    6.56752619441132
H         5.46837146896533   12.24494780371344    6.76631820696751
H         5.99731193686256   13.83680042194923    6.18150842270645
C         7.91641905509070   13.17588055744813    4.76616112775919
H         8.63099974061435   12.69468957683606    4.09851727539273
H         8.45036310035031   13.87979866916151    5.40401612946741
H         7.18951717370531   13.72577431299298    4.15677896091505
C         6.60610863757509   11.16325224840241    4.78612247011417
C         7.22926977802563    9.90811700714108    4.67064463330757
C         9.61531389384118    9.75594912640138    4.44794234998270
H         9.56385573065895    8.94509671143453    3.71174503565235
H        10.54386249552468    9.66644235431924    5.01114343853054
H         9.61845778238988   10.70594786813652    3.91370945693246
C         8.55527677903022    8.42386793662400    6.15528575007959
H         9.08250994718440    7.63644032889082    5.60708091870988
H         7.54318329243137    8.07232981145651    6.37905293774554
C         9.24588824425734    8.66455142280446    7.54077590244452
C        10.01117179872765    9.98301308163716   10.24058714188395
H        10.47541187352254    9.01450159551604   10.14866778591771
C        10.07795376733451   10.71066826528911   11.42148773240185
H        10.61886656372294   10.30160417660592   12.26209816635149
C         9.46172927497993   11.94503662051144   11.53678869809669
H         9.52574285932151   12.49068464375320   12.46669703072352
C         8.75671750921644   12.49682831201201   10.47521420784284
H         8.26189513410554   13.45053200917850   10.56256442098658
C         5.41246892635791   11.39932582606230    4.11977925205154
H         4.92622988419719   12.35856009270668    4.21534895713973
C         4.83343980697248   10.40276168408312    3.35200396737597
H         3.89993632359235   10.59250132890426    2.84556074647184
C         5.44642284820016    9.16719620530503    3.23886556361633
H         4.99250866785543    8.39004953531666    2.64396086122000
C         6.64234856800239    8.92101663161323    3.89235860074094
H         7.11289117565303    7.95269805987661    3.81072226678872

