123
CSD_code = DIGKIO | q = 0 | S = 0 | Stoichiometry = C71H47IrN2O2 | MND = 6
Ir       13.84884778764171    6.09944764800351    6.46903779370326
O        14.66067108521474    4.99789280634021    8.22293042203931
O        13.87535528252057    7.83629452173355    7.85981453491600
N        11.97507279247678    6.02417471662302    7.09269314467556
N        15.77186523175247    6.21510702942017    6.03157144152681
C        14.91877622243630    5.46038904814658    9.35905796840567
C        14.71278256107535    6.76682658830253    9.81189396536153
H        14.97100665840008    6.96981020122126   10.84105795678091
C        14.20735448112834    7.83742793995022    9.06855539631333
C        15.51005309517994    4.49135160019886   10.37009958047509
H        15.63032678443339    3.51239736033633    9.91216561388867
H        14.85476550187501    4.40751509339819   11.23504458652167
H        16.47912027017387    4.85178327927536   10.70934032014636
C        14.05629573784276    9.15321868696619    9.81462564446186
H        13.70193253573921    9.92257853691018    9.13276821192179
H        15.01013313639559    9.45698837978061   10.24081387356122
H        13.34062197644279    9.03723112741407   10.62629964400278
C        12.96519378992588    7.21508162149756    5.04497774387741
C        13.51574210138871    7.67358100521305    3.84227249322938
C        12.82008574494765    8.60473969377611    3.08696121623476
C        11.58954970859330    9.14092253540431    3.54886621057629
C        11.00947271537151    8.67982425426370    4.71927072776918
C        11.68528484781103    7.67732352303528    5.44464197168997
C        13.14549985572301    9.23071928212525    1.80901345583990
C        14.14981597581407    9.11138712321866    0.87976839788266
H        14.96269109353018    8.41277547519789    1.00347849637718
C        14.10741555830830    9.92768223993525   -0.26632694567438
H        14.90308715857175    9.82636567716377   -0.99130020494931
C        13.10739688624692   10.84032236283059   -0.49582876343996
H        13.11859230824767   11.45022047989837   -1.38803413740024
C        10.95239155913926   11.86705137891662    0.36334906076709
H        10.85289733268794   12.53178328516170   -0.48289147465783
C        10.01901600582018   11.87767672608140    1.36939398569866
H         9.18432144133978   12.56195257110891    1.30507012046917
C        10.09231921636369   11.03197834579772    2.49337317494071
H         9.32355087748179   11.09796342113013    3.24720540683443
C        11.14401193873979   10.15424688269873    2.59333184667945
C        12.11038475395402   10.16095087852531    1.55959863353665
C        12.05428386628212   10.98546941996989    0.43464763854886
C        11.14898503999960    6.98414684444777    6.61052344229742
C        11.59717123745606    5.28091289209611    8.12789543400607
H        12.30094123252341    4.52796571412598    8.45556296031213
C        10.38479855823825    5.43887466629644    8.76676309623840
H        10.12601730735999    4.81643304875163    9.60829848553218
C         9.51983258874557    6.41347443620926    8.29063170882101
H         8.55885194022335    6.57375166812558    8.75608749279016
C         9.90172063273725    7.17887846623842    7.20756693262376
H         9.23300034931309    7.93080267190122    6.83114248422441
C        14.81596309444839    7.16676672357275    3.34604718800980
C        14.88930166438768    5.94322169806408    2.69164795474472
H        13.99619627570279    5.35303855946167    2.55937951488263
C        16.09776167239668    5.48399090623064    2.20057593912570
H        16.13467608096837    4.53701499545862    1.68247343044916
C        17.24827716773548    6.23506362084422    2.36448224376536
H        18.19388416097629    5.87226965199949    1.98836973567511
C        17.18061812473278    7.46235303476572    3.00309584424121
H        18.07395108787395    8.05881139207131    3.12252570701052
C        15.97056700157940    7.92995500803752    3.48222047314710
H        15.91241013621836    8.89433945910199    3.96552464716248
C         9.74645200989258    9.31748963125956    5.14990075699000
C         8.52802420808991    8.95307653520864    4.58460350343898
H         8.50111464784286    8.16091593171964    3.85211009360778
C         7.36295395850938    9.59800755140749    4.95982603265064
H         6.42093917243366    9.30620674624995    4.51843950349864
C         7.40311055986178   10.62167045910646    5.89248271677864
H         6.49339969506098   11.12757571928725    6.18086047405292
C         8.61418138855958   10.99852765502042    6.44969611397018
H         8.64964184313425   11.80150236228326    7.17161276482994
C         9.78010596679784   10.35200766779081    6.08069406011930
H        10.72724041162691   10.64115399775670    6.51166485967723
C        14.03943485309735    4.46266465896198    5.31157179892038
C        13.02332277773495    3.65050138745638    4.79395922597978
C        13.35472302834479    2.44517638078390    4.19478728179581
C        14.70277764672758    2.00261254446243    4.15124414224993
C        15.72861201847696    2.80338145376721    4.62601831455077
C        15.39191826410067    4.05952223046496    5.17042647890924
C        12.51463511724453    1.42712094061534    3.57114354533203
C        11.17811415160573    1.29044375583950    3.28577156034769
H        10.46059869625731    2.05894311989882    3.52803803750020
C        10.74106569337541    0.10967923405283    2.65613249786040
H         9.68686565340625    0.01167709370050    2.43703777825457
C        11.59156075658317   -0.91326218631634    2.31577918945845
H        11.21034366317325   -1.80467077206166    1.83809239360199
C        13.98674025346427   -1.74949722118855    2.30917642997276
H        13.72971525141961   -2.68488714068915    1.83287290011941
C        15.28807554623575   -1.47693060754777    2.64924205964000
H        16.05216724378425   -2.21175151400331    2.43644220786872
C        15.68429040586787   -0.27456820232182    3.26666778486946
H        16.72565030372335   -0.13046988233199    3.50831580111903
C        14.72909875721236    0.67257038065273    3.54417214740416
C        13.38763688323965    0.37728670220585    3.20400479856987
C        12.97379622680973   -0.80433218927798    2.58674889214027
C        16.35295460858215    5.07449063162418    5.58705136970298
C        16.52660967777997    7.24294605430231    6.40690364192397
H        15.99756373396090    8.12381125926675    6.74432671578291
C        17.90553673998505    7.21518839358551    6.37936469029129
H        18.47532538683196    8.07211418799622    6.70127586103455
C        18.52484881951203    6.05997982363585    5.92471294177774
H        19.60154147061877    5.99094112246246    5.88241817166372
C        17.74555916278100    4.99432626838187    5.52236470185625
H        18.21999066535552    4.09940636367118    5.16412980970931
C        11.60195259027043    4.06275165870861    4.85240644449979
C        11.09615443793583    4.97329567537117    3.93267473021093
H        11.74710233943865    5.39214700016807    3.18155345794994
C         9.76239870410824    5.33701999751412    3.96934642749846
H         9.38259615122417    6.03711138704218    3.23985659301939
C         8.91964391533531    4.80289019664536    4.92804680798092
H         7.87950885925560    5.09313674023440    4.96156913238684
C         9.41294243841677    3.88320328434025    5.83880448762999
H         8.75603931582747    3.45334953849171    6.58162158381664
C        10.74337237518533    3.50830103691731    5.79560658498867
H        11.12645273506547    2.77927853924695    6.49473921022181
C        17.10031972868721    2.25265359540654    4.57320348908323
C        17.83905466874261    2.27870972770488    3.39397174850991
H        17.41960358247294    2.74919943735411    2.51805009095329
C        19.09910975350028    1.70957792080067    3.34579954047011
H        19.66678779082742    1.73763714465044    2.42692494850787
C        19.62966850804255    1.09672082571937    4.46928861656401
H        20.61146594790430    0.64826615893725    4.42885417924481
C        18.89470180319542    1.05538205310012    5.64287051136856
H        19.30264043091280    0.57135821335271    6.51836779417504
C        17.63672909954190    1.62843112404971    5.69582847392619
H        17.05910627439146    1.59911201035831    6.60790722859020

