45
CSD_code = DIGKIN | q = 0 | S = 0 | Stoichiometry = C18H22MoN2S2 | MND = 12
Mo        6.49627326922753    2.03271363888896    5.92638802936232
S         7.21466791585903    0.70763318449038    3.93844070976624
S         9.57649281941313    2.45969873799989    4.32270455044671
C         4.73070085186513    0.77289851854672    5.72983680434995
C         4.43352322669754   -0.22280482435231    4.90200299439776
C         3.79006862739529    1.12464789463079    6.70596101064272
N         3.04129668341937    1.43573758665453    7.52460384979808
C         8.78344006571877    1.28937164762560    3.45719914935454
N         9.31488900454085    0.74138348702996    2.35796231408432
C         8.61705578431279   -0.25170667393696    1.56888829123073
C         8.86410630930247   -1.66560094937760    2.08844783349958
C        10.64207620322135    1.11832895971809    1.91386397739693
C        10.60165238154389    2.31995348703540    0.97435299905192
C         4.92785483052225    3.67208221233425    5.87309039766654
C         6.13175194439686    4.26857135682640    6.31152144927818
C         7.05911505342948    4.25593280746047    5.23742982997351
C         6.44940511342791    3.64687526675523    4.14480482719888
C         5.14288054580892    3.23198555333135    4.53204052135648
C         8.44132829781873    1.99498709813764    7.32769755140058
C         7.27796360491059    2.30207243265080    8.08016737650177
C         6.40801620249060    1.19124890760623    8.03571863504770
C         7.01814100009910    0.21380949336985    7.19106592390863
C         8.29641386403075    0.71359712259726    6.80650087715845
H         3.49264743384831   -0.75514991067011    4.95814753363346
H         5.11366999678094   -0.55043267517322    4.13147367968751
H         7.54633943382534   -0.03437186728126    1.59692845238648
H         8.96374194528927   -0.16212461371155    0.53663770187973
H         9.92734482407969   -1.89548390248794    2.08764062718306
H         8.34914292255943   -2.38588813686437    1.45922061814330
H         8.48701822564056   -1.75684076806453    3.10373384777871
H        11.24263678654771    1.36648099859968    2.79286966892821
H        11.08808185762839    0.25606657419981    1.41322491262828
H         9.96924617353763    2.11638113701345    0.11276640388602
H        11.60450674306820    2.55178967921470    0.62724485503170
H        10.20768642748381    3.18479716605520    1.50171576405737
H         3.97559613940173    3.71565722628768    6.37905326078775
H         6.24985515013101    4.83705947111475    7.22355693867722
H         8.03773357358129    4.70942821495800    5.24133743521527
H         6.86530291537157    3.56397560725051    3.14868093034465
H         4.36541206741822    2.92185388851623    3.84153526821913
H         9.31783714796814    2.61687946370164    7.23549535439664
H         7.17498045572108    3.14673075069795    8.74716112242058
H         5.54391373333128    1.03478846622864    8.66344202481105
H         6.71633061077335   -0.82611753093042    7.11809463021629
H         9.05016183657663    0.16080381533045    6.26104906681186

