69
CSD_code = DIGMEO | q = 0 | S = 0 | Stoichiometry = C26H40P2Pd | MND = 4
Pd        4.31581270317928    3.76664878510002    8.52044271714708
P         5.39192234999479    2.88750390328454    6.76989093174770
C         5.65811983162860    3.06437848537409   10.00922837537468
H         5.42622484915229    2.00116370006167   10.18118554020107
H         5.56847960154820    3.56898896343790   10.97582157111994
H         6.70977583005889    3.13773277781059    9.70384354963002
P         2.98058793456084    5.02925047508893    9.83208390339352
C         2.14800465350030    6.07607481690269    8.59195153617382
C         2.40544053349380    5.68326055961356    7.25538569193012
C         2.20795608672301    6.64016820074436    6.25631564657339
H         2.50580272019806    6.42543946728750    5.24013313640052
C         1.63686917926017    7.86381553629607    6.54823605455655
H         1.48680299236595    8.58427287590905    5.75621809177709
C         1.23370155633779    8.16736357760003    7.83916562114575
H         0.74792049477809    9.10763125174217    8.05453888841756
C         1.51917599364909    7.28057591088158    8.86447648233431
H         1.26797929597912    7.55273547797849    9.88029119593510
C         2.85283310818046    4.29661584965111    7.03635112707442
H         2.05905085001442    3.62282377027827    7.41924115819725
C         4.29767933935981    3.15963409052515    5.33784174252973
C         3.12210416140095    3.86197786539067    5.62729982240518
C         2.19017335830415    4.03855227165037    4.60539005858108
H         1.24741395966151    4.52140428788698    4.82224837913748
C         2.44219023316382    3.57605263423579    3.32768878457400
H         1.70973273213809    3.72581261775820    2.54702958049011
C         3.61970066485542    2.89967161928697    3.04785837571585
H         3.81157419476924    2.53350069784438    2.04949176242118
C         4.53725752836174    2.67408804137263    4.05608460920013
H         5.43609160873379    2.11475575307820    3.83959060169644
C         3.71547349967267    6.33344585938171   10.94258016689368
H         3.00294733567252    7.16019983501878   11.03673971153182
C         1.71765103890295    4.11817148209554   10.85398388289553
H         2.24331972454773    3.82603161986888   11.77188836896212
C         4.07334090780673    5.83105544032591   12.33608052148220
H         4.68354174237277    4.93257032364198   12.27936424954231
H         3.18151362278516    5.60955478956296   12.91883674938619
H         4.64212814111695    6.59381460171649   12.86696938809374
C         4.95054301075350    6.82241404345428   10.18666089393914
H         4.65938116029266    7.22119559015749    9.21257285336363
H         5.63933721910109    5.98560178898305   10.03006430031228
H         5.46891263424359    7.60427578118990   10.73972122845080
C         1.35883278150666    2.84396279109185   10.08882699547768
H         0.71081201202583    3.07721878028842    9.24377650846008
H         0.83644221872059    2.13665964352376   10.73175163577062
H         2.27695146128860    2.36460480635874    9.71297539195070
C         0.48972246475040    4.94816014694201   11.20224273527998
H        -0.01917960990784    5.27342688057115   10.29623187473585
H         0.76519555443745    5.82884120738860   11.77966351187454
H        -0.20831432912911    4.35754066579972   11.79470124420709
C         6.90618101387199    3.90481835248679    6.41506945284066
H         7.62626102413677    3.63881406033751    7.20088133940431
C         5.81752206790061    1.08911844588334    6.60609735926026
H         6.02259713981564    0.84889693385328    5.55667436298135
C         6.46358999200751    5.35400785760617    6.62783288768141
H         7.31542588589052    6.03217935592752    6.60905448891594
H         5.95599129564607    5.44712146492614    7.60294403252212
H         5.76405878152249    5.65321040742872    5.84589971455172
C         7.54507910429714    3.69864214773347    5.04845059153707
H         6.86539650193230    4.00848556839367    4.25744470877726
H         7.81633699862364    2.65612798191617    4.89164173451929
H         8.45075998598891    4.29929018582296    4.97067613524166
C         4.54987467704483    0.36566296878376    7.06150975996962
H         3.72926891925187    0.56409647340151    6.37112958999824
H         4.25772442776729    0.73080622414894    8.05323004328629
H         4.70537137496275   -0.71047221599624    7.11723972777832
C         7.01775567950708    0.70680266779078    7.46258863080968
H         7.17812923447350   -0.37017992973316    7.42451996016795
H         6.84556287713090    0.99183942135604    8.49774981594764
H         7.92358208191633    1.19839128650209    7.11250851531892

