72
CSD_code = DIGMIS | q = 0 | S = 0 | Stoichiometry = C27H40O2P2Pd | MND = 4
Pd        6.91567964157505   10.22576800032475    1.71987796590139
O         5.62693581935658   12.34229764304487    2.36330365210115
P         9.11390259782396   10.02675039110479    1.89549268248368
P         5.81546298001343    9.03665770895720    3.38239006750080
O         5.18628225889222   11.03579645777977    0.63598903633599
C         8.02741930426719   10.96914548682593    4.64858588270901
H         7.29260437962336   11.16001026984388    3.84540641862821
H         7.68653666231406   11.51578386696988    5.53305588174714
C         9.36080257260506   11.53057482428640    4.23426907511976
C        11.21666894754157   13.01601195770583    4.68312921668140
H        11.70279917973375   13.72266533236270    5.33947777432146
C        11.78752409419203   12.69368879809415    3.46373441155065
H        12.71629408627007   13.15242273396912    3.15777872106226
C        11.15439375578823   11.78975083699573    2.63203958001324
H        11.57913735193637   11.56447294628888    1.66561902108011
C         9.96121441797806   11.18430070527933    3.01634392901408
C        10.01098584348162   12.44728356920024    5.05246710621383
H         9.55891440472053   12.72756279774779    5.99382333345357
C         8.07849236886429    9.50141564505246    5.00616536704505
C         7.10662769080817    8.56874352829252    4.60761011751539
C         7.20128120493941    7.26031762927231    5.07688400376634
H         6.45640981586350    6.53406357871682    4.79012257129720
C         8.23431707514883    6.86049925299098    5.90428906163073
H         8.28341942915683    5.83878452497876    6.25162794229376
C         9.20288817879402    7.77460232765455    6.27911186102410
H        10.01916686077148    7.47407594564475    6.91917367417029
C         9.11300409668998    9.08101765277252    5.83647002455169
H         9.86116820030230    9.79938084210360    6.14151617711331
C         8.42923047423527   10.94091600309311    0.51032948354933
C        11.50781461402176    9.04198552164571    0.64617586781297
H        11.97230053941140    8.15789007812699    0.21065430243998
H        12.23889015316151    9.51484934685195    1.29722917385027
H        11.25362979210674    9.72499234027871   -0.16207223774890
C         5.32678157976942    7.44576023608006    2.53555691586619
H         5.04503018953805    6.65347051546890    3.23704701776167
C         4.34352940194569    9.44308393639527    4.45974955424623
H         3.51551082327055    9.59323188449626    3.75610627605382
C         6.51832632512515    7.00282600562207    1.68833102561830
H         6.28377237540604    6.09449959702272    1.13444451405230
H         7.39673641444183    6.81751021129139    2.30771280622263
H         6.75165898975481    7.80418030771477    0.96602575885818
C         4.15006016718936    7.77085887774287    1.61624373531532
H         4.38770804322438    8.65794393141188    1.02095097084768
H         3.23952701103270    7.96293815245458    2.18011718629924
H         3.95841607786465    6.94130719387880    0.93663344023488
C         3.98010831368336    8.34765266602038    5.45521635470176
H         3.70894029368016    7.42213602037790    4.95248738636345
H         3.12748678176967    8.66669751060133    6.05328903388488
H         4.81215825146766    8.15017974260179    6.12873179488400
C         4.61046305639536   10.76984645413483    5.16623389236878
H         4.92035470617376   11.52489104469687    4.44294418229410
H         5.39070726754749   10.65038413339595    5.91630427274233
H         3.70811092493572   11.12023750535263    5.66519160097125
C         4.95719096224891   12.04167783360411    1.36063250782224
C         3.77761027963231   12.92289423900602    0.95592232144022
H         4.11246830569205   13.62629507617444    0.19604556080566
H         3.41933548322868   13.47833705182541    1.81780448736451
H         2.98348780163308   12.31086790565133    0.53689010338900
C        10.63681591227092    7.87865599958992    2.70758511424778
H        11.22462811251578    6.99345253075619    2.47030897837835
H         9.74191647244999    7.56884484696730    3.24571304647558
H        11.22353967705484    8.51493948792707    3.36868952677224
C         8.51654296081838   12.45065445436711    0.53941876239669
H         9.49094784370587   12.81013822535496    0.19101268286120
H         8.34409043073181   12.83075417020269    1.55073126950382
H         7.75008426629017   12.87099665960614   -0.11500897437501
C         8.45021042736614   10.32359356132168   -0.87097870679245
H         7.54967576925007   10.62427219371121   -1.41356870799526
H         8.46814905653279    9.23197717121452   -0.82100752093815
H         9.31427697746405   10.66317485337668   -1.45192507132977
C        10.26877214023097    8.63109792493246    1.43300661686989
H         9.64767133430328    7.97886134341894    0.80403913727607

