57
CSD_code = DIGMAH | q = 0 | S = 0 | Stoichiometry = C16H28N12Ni | MND = 6
Ni       -0.00216445672089   -0.53664974233288   10.82067229589891
N        -2.31822361593209   -0.85628918770339   10.67309800530244
N        -2.62482834095260   -1.47449817378163    9.52530103649369
N        -0.34914283166854   -2.16506560785209    9.40070140131480
N        -0.01845491930076    0.74588075274241    9.50418689151952
N        -0.91548871904244    1.40856724014026    9.14516428205927
N        -1.69047483483914    2.07398591362873    8.64390664651681
C        -3.95853377724424   -1.44885928661624    9.29055468166777
C        -4.52481822720587   -0.79584005317475   10.36352667682334
C        -3.45425043966552   -0.43560613980011   11.20005839851985
C        -1.57677331412698   -1.93221920944200    8.65052330753320
C        -0.49682879506815   -3.35337263797447   10.24435986496053
C        -4.57317343765118   -2.03091413462371    8.07087407130681
C        -3.47571729961999    0.30426649637228   12.48670075300413
C         0.75733232101648   -2.32065695377152    8.46364697904246
H        -5.56449641687902   -0.59222240706549   10.51755479305608
H        -1.51076764938680   -3.36599478965340   10.64959674681079
H        -0.35787956684988   -4.27196321772271    9.64981479032314
H        -5.65130029632543   -1.90725538483245    8.11360426561628
H        -4.34815971048225   -3.09493555775470    7.98388592962859
H        -4.20020849464217   -1.52885802351030    7.17819331972542
H        -3.86325305228156   -0.32204847683979   13.29038965388379
H        -2.45927782888317    0.61247994261232   12.72136719553112
H        -4.10987442209954    1.18342521695450   12.40165551859501
H        -1.37723939847674   -1.16223446173321    7.89288550682194
H        -1.91684515049968   -2.85068769052525    8.13631081445728
H         1.68349627398030   -2.48393541684321    9.00691016623104
H         0.58558089717692   -3.16575839448695    7.78020046982337
H         0.87073862486581   -1.40593652584315    7.88568470662067
N         2.31449634992241   -0.84869905275902   10.96564553166393
N         0.35173169682077   -2.16216773929209   12.24349390123236
N         0.00630403838355    0.74765038608313   12.13503213510819
C         0.49697098956401   -3.35288018993904   11.40278348447831
N         2.62644930977698   -1.47164251365558   12.10940653356828
C         3.44842699220049   -0.43147852606226   10.43167196920305
C         1.58176147348034   -1.92728199949661   12.98928908941012
C        -0.75255109972067   -2.31479479769216   13.18363738243090
N         0.90738007123115    1.39740136960840   12.50721544696926
H         1.51094957609362   -3.36876554815240   10.99766302042501
H         0.35619960583620   -4.26968217829855   11.99961101829166
C         3.96195602775499   -1.45282352717448   12.33444246109943
C         4.52337630924514   -0.79900538455289   11.25937364708706
C         3.46350957144589    0.31237600328169    9.14724978165166
H         1.38492427582736   -1.15558818004828   13.74586157450030
H         1.92383509309847   -2.84434185586027   13.50452231694611
H        -1.68007779254520   -2.47819541859454   12.64268633693603
H        -0.57993492452947   -3.15860376497032   13.86845656300050
H        -0.86377531336333   -1.39880847674830   13.76005999063226
N         1.68562896150343    2.04993131251812   13.02042311917343
C         4.58347937828708   -2.04090493062768   13.54771987787307
H         5.56284783117048   -0.59975290292283   11.09836326435105
H         3.85333758378449   -0.30913819795814    8.34099539533085
H         2.44494630721856    0.61584244272511    8.91554695465075
H         4.09278357929083    1.19493090061572    9.23397360213694
H         5.66258693702478   -1.93179615654586   13.49163195428865
H         4.34522876769441   -3.10157296081612   13.63982229712855
H         4.22825528230902   -1.53201220123019   14.44379218133807

