29
CSD_code = DIGRIX | q = 0 | S = 0 | Stoichiometry = C14H10I2N2Pt | MND = 4
Pt       -0.25655255189331    2.02575233651206    1.81571997772291
I         2.23429065167640    2.02565006905639    1.01285745501154
N        -0.25646012720037    3.88096614383066    1.81586072355151
N        -0.25623390152077    0.17053305941855    1.81557321468163
C        -0.25524225476188    5.03656208141182    1.81672036918986
C        -0.25494300210833    6.43618541374538    1.81743689914854
C         0.88649187499383    7.13001556829867    1.40108599108935
H         1.76003361284597    6.58118463845414    1.08269717646030
C         0.87595715014979    8.51038884698035    1.40435741984438
H         1.75294444749257    9.05184976988947    1.08377053484798
C        -0.25507927110357    9.20003507222139    1.81685012124477
H        -0.25532594740739   10.27951153957286    1.81612340071524
C        -0.25563684113220   -0.98511745230912    1.81598720331475
C        -0.25518481137630   -2.38479903484461    1.81684031910354
C         0.93293924305204   -3.07861510164821    1.56327891682039
H         1.84204373880613   -2.52976878483097    1.36872150506636
C         0.92235877167084   -4.45899992538822    1.56630113605397
H         1.83563079755386   -5.00042145148790    1.37196760522224
C        -0.25497709118105   -5.14872701725356    1.81720582845468
H        -0.25496243936153   -6.22820438672644    1.81705867542138
C        -1.39623970794049    7.13002691171375    2.23409416385496
H        -2.26955584785149    6.58119283830496    2.55312701407611
C        -1.38587203139734    8.51039729741624    2.23017465151830
H        -2.26297371029341    9.05184140227956    2.55046398002929
C        -1.44311826536276   -3.07874639796718    2.07098199464744
H        -2.35222160472247   -2.52998043782493    2.26572069620132
C        -1.43232835496821   -4.45913211346591    2.06834284423046
H        -2.34546877376951   -5.00064087641901    2.26309278408672
I        -2.74751375288890    2.02545999106022    2.61758739838867

