47
CSD_code = DIGRES | q = 0 | S = 0 | Stoichiometry = C23H19AuNOPS | MND = 3
Au        1.61575622842372    4.53040843951386    6.65888904876004
P         2.39463677742003    6.63382156132991    6.39491147612081
S         1.05640010529838    2.24103387512263    6.60503002472763
O         0.11064340677644    4.34562499208474    8.55967625000606
C         1.48204555417700    7.62375792806624    5.18210978484632
N        -0.38675598836143    3.15972660791646    8.70941910141912
C         4.56513502602339    7.73824883928371    4.94710053054106
H         3.87212118384255    8.46240544411568    4.54074466425227
C         5.00778588361533    5.82374897457697    6.34028403991569
H         4.63874172887190    5.06072272781867    7.01453387144120
C         4.11560055609028    6.76251095726078    5.83029569295933
C         1.55509548185715    7.23715890664604    8.94396375385097
H         0.97033836444626    6.33304678853898    8.84063481735401
C         1.46380369594824    7.14024521655202    3.87429630375148
H         2.01636484763493    6.23921464919436    3.63788554557176
C         0.03806900939010    8.95308839783392    3.22712428199028
H        -0.52211359327629    9.47517443136033    2.46580161985899
C        -0.05254721617956    2.11003745193217    7.90162446345980
C         6.78674359700317    6.83957155633137    5.09881304525391
H         7.82663194945078    6.86973703828936    4.80935433543348
C         0.75304593613567    8.75956248589805    5.51196855045164
H         0.74820748967053    9.12218740974696    6.53034985119624
C         6.34067207780182    5.86540737216249    5.97802832457344
H         7.03092511113348    5.13546400234126    6.37392662300289
C         0.75049026358080    7.80886875168772    2.89964359969712
H         0.74267583470498    7.43721855154923    1.88571406260170
C         5.89971796968798    7.77119357687867    4.58431111210118
H         6.24855982651057    8.52687741443282    3.89561403649650
C         1.49986932909650    7.99080218655447   10.10375237982240
H         0.85961733520004    7.67890125051537   10.91543696541537
C        -0.64681959175600    0.86726564913418    8.15059015301571
H        -0.36266108720144    0.05881735959821    7.49699678664724
C        -1.26744090088086    2.98363797960107    9.71125018234023
H        -1.46278848624088    3.87499861087714   10.28817373681127
C         0.03647013739837    9.42201995557859    4.52998333406532
H        -0.52679002989408   10.30776919905619    4.78473387882276
C         2.26749491147715    9.13732972344272   10.22612758385334
H         2.22621646378177    9.72114824898245   11.13407299285956
C        -1.86329600115712    1.77802416152956    9.97544707966816
H        -2.56156196893066    1.69606293452881   10.79188080324376
C         2.38091251088514    7.64452206791406    7.90061876943103
C         3.15669079058038    8.79434716207118    8.02391174650142
H         3.80313010071419    9.10016203379261    7.21228134805947
C         3.09591108412259    9.53671280751620    9.18821276877301
H         3.69677570364209   10.42899729006564    9.28854999187812
C        -1.54490389363068    0.68534378336151    9.17240788160209
H        -1.99241751488618   -0.27982675260558    9.34812280555538

