94
CSD_code = DIGVEX | q = 0 | S = 0 | Stoichiometry = C42H42CuIO6P2 | MND = 4
Cu        8.91328741269782   10.77433299542527    3.95882224391707
I         8.07805780507603   13.05577602528798    3.38615426919430
P         8.94751512585247    8.86500285220682    2.77762990062352
C         8.18518837713604    7.58518138320196    3.81866248502016
C         7.08494927147933    8.08699179550532    4.53309821349307
O         6.76803911413658    9.36022841176660    4.19647271775414
C         5.67529251603127    9.99593834448920    4.82292250670504
H         5.81514160180573   10.05735303307479    5.90605394683180
H         4.74027702549673    9.47509805998890    4.59866463684524
H         5.64103198612718   11.00163284802467    4.40673097182677
C         6.43104160482055    7.31387531873508    5.47159144257018
H         5.59444168195928    7.67764547653807    6.04342505169081
C         6.86754245561484    6.00650827286535    5.69365147764115
O         6.17345605531349    5.32221696152727    6.64140936230808
C         6.53781369110604    3.99450763047859    6.92874196457709
H         7.56508211693271    3.92988227608568    7.30243390559819
H         6.42619199836750    3.34672391020003    6.05322846903914
H         5.85282384045522    3.66431636321588    7.70791892399453
C         7.93183260583164    5.48194502547051    4.96953764318937
H         8.24569498973186    4.46425349927031    5.12699763906721
C         8.59172163635527    6.26822066171442    4.02756588553505
O         9.61347527999265    5.82206136727709    3.25276364932679
C        10.21396276143160    4.58625083780676    3.54558401964762
H         9.53297540719399    3.74913311516953    3.35716580603687
H        10.56704872653864    4.54866353234245    4.58090736363045
H        11.06732064543891    4.51185619407257    2.87290641667091
C         7.93296754268306    8.70476095114025    1.27231853220910
C         7.41938163914329    9.85733877005377    0.69081430177576
H         7.63752273770354   10.82026850130755    1.13069712811214
C         6.62680375497547    9.76793756390507   -0.44047511356801
H         6.22713742405295   10.66532277908006   -0.88896561495967
C         6.34626051266367    8.52888619722814   -0.99065826368236
H         5.72720221445264    8.45699866406379   -1.87322206167580
C         6.85603806675856    7.37648487239078   -0.41037249126403
H         6.63430465076847    6.41100579093357   -0.84307128447948
C         7.64530020962394    7.45928861805859    0.72052987371006
H         8.05045303329445    6.56756674177747    1.17846719392231
C        10.55961763029275    8.18756620240964    2.28435685257660
C        11.49801362725904    8.02520569340235    3.30234079118499
H        11.20368833137009    8.20835404296069    4.32798794376382
C        12.78550944194603    7.62580168355210    3.00964018803565
H        13.50153642930348    7.48812600243972    3.80784284103196
C        13.15928345513427    7.41067043731804    1.69134029054200
H        14.16772577891950    7.10037292183714    1.45820620041705
C        12.24106946262735    7.60397310127250    0.67300924408081
H        12.53515650659314    7.44813270655039   -0.35532628490636
C        10.94639309834715    7.99839934792573    0.96307741606324
H        10.23486862877488    8.15301313715857    0.16359888055139
P         9.71380875175783   10.23766330400712    6.06444917685638
C        10.84383830520667   11.63908494183903    6.25997159881552
C        11.46234394558047   12.10301987772365    5.09493427335131
O        11.29998363999116   11.29658259045560    4.01052747661290
C        11.72001103541608   11.75898204912386    2.74603710120126
H        12.80811974522143   11.86506542817247    2.70466329972599
H        11.24123726555800   12.70865114777033    2.49158751589795
H        11.40909980652437   10.99526792023496    2.03258206436024
C        12.18390780756992   13.28795588211586    5.09549921424885
H        12.63256298043850   13.64989102062454    4.18716035169531
C        12.30375421325463   14.00275094562365    6.28210372645084
O        12.96622221921880   15.17979948793996    6.40100102094507
C        13.46903472324752   15.79573274735503    5.23797675260523
H        12.67462206796056   15.97984100771141    4.50890497051477
H        14.26089985093702   15.19706166709157    4.77597670976652
H        13.88515108744029   16.74654000958046    5.56664704216035
C        11.75183785448283   13.51332953746806    7.46709898403776
H        11.90347082691231   14.09018673665481    8.36352351891041
C        11.02929072751788   12.33380722606445    7.46247515339526
O        10.48209375048020   11.75311826322741    8.55702090578390
C        10.46019987228663   12.46870559738318    9.76723294720618
H         9.96701687548341   13.43770691086473    9.64763486812831
H        11.46997251976282   12.61812361223556   10.16270465465747
H         9.88686017307940   11.85460759436475   10.46018203047560
C         8.42769056073552   10.58454861220557    7.30863874603818
C         7.74397625486748   11.78915537844101    7.14852118917027
H         8.04866188314221   12.47705802477334    6.37205220926997
C         6.68907398657920   12.11259196684519    7.97881145167564
H         6.17228807262353   13.05190758165225    7.84770115478444
C         6.29096780119919   11.22745352086315    8.96864423923814
H         5.46173295890941   11.47389493439521    9.61575812948437
C         6.96108747553681   10.02588157550350    9.12605847774581
H         6.65618761759842    9.33453960706580    9.89930942217550
C         8.02398404743373    9.70065346453104    8.30123879026619
H         8.54731272955692    8.76751315780612    8.44906031213206
C        10.65344378372856    8.84803286109603    6.77828173928798
C        10.03145524071850    7.60124819164447    6.84207990452795
H         8.99539153367430    7.50738365947444    6.54526415026519
C        10.73368184591540    6.49067869910876    7.26784597832097
H        10.23801158991645    5.53107384283520    7.32535277015254
C        12.07076960512268    6.60419048076196    7.61408736327881
H        12.62193663403693    5.73463230289611    7.94183595668585
C        12.70002913667772    7.83542031795043    7.53084447228987
H        13.74455686563245    7.92514569461732    7.79370972175164
C        11.99998500113005    8.95205808866164    7.11131907920362
H        12.49599542031865    9.90999161275488    7.04061190825262

