89
CSD_code = DIGVEW | q = 0 | S = 0 | Stoichiometry = C44H40BNO2Pt | MND = 4
Pt       -1.25524657742803    2.50585016564356    0.80834411359988
B         0.04413082755585    8.44939371555609    6.70213213213253
N        -1.61716703133287    0.98074477938969   -0.35524921536095
O         0.16829995241903    3.39722618887911   -0.50795299992393
O        -0.94208844167722    4.01507348549727    2.08476274081373
C        -2.58058342255552    1.57165762846425    1.95667691124363
C        -3.07571762056843    1.95964663829988    3.19566805768236
H        -2.74455091592487    2.89114055993607    3.63185876678160
C        -3.99127775853590    1.17223414892487    3.87510663092365
H        -4.36609361892169    1.48942640924390    4.83816037660811
C        -4.43297766585166   -0.02431652643066    3.32844086980648
H        -5.14564051780333   -0.63321899402283    3.86560234238590
C        -3.96458109923464   -0.43639155345062    2.09690808958177
H        -4.31555532689600   -1.36738469890664    1.67591230438166
C        -3.04415367077034    0.35367707912984    1.40960514060597
C        -2.48491527969797    0.04119308480965    0.10411137513482
C        -2.76962852452313   -1.08801197370929   -0.66114001845304
H        -3.45695134268203   -1.82768794002936   -0.28392284519052
C        -2.17122884712992   -1.25502259613326   -1.89515383223989
H        -2.38365399405506   -2.12704334246621   -2.49481198574311
C        -1.29243186754543   -0.27980381805920   -2.34979577260790
H        -0.80786831440984   -0.36937340606378   -3.30864041175617
C        -1.04633132542190    0.81800739492347   -1.54802279579822
H        -0.37173826943070    1.60231574359018   -1.86536404297300
C        -0.11633964778485    4.97699690456962    1.96759190326301
C         0.73315874137898    5.23365883401161    0.88773707582254
H         1.41267667684750    6.06525982712504    0.97167936060416
C         0.81506874712571    4.45505378324833   -0.27390078558720
C         1.76940938689990    4.88732213784907   -1.33319388823465
C         1.99054853670710    6.22875031411042   -1.62992307708175
H         1.45884813322182    6.99680891338456   -1.08813688157839
C         2.86641023771512    6.58273758384252   -2.63975585600709
H         3.02722053546980    7.62625992273929   -2.86886107588328
C         3.53359772257261    5.60597155904260   -3.36068366258708
H         4.21887630665947    5.88719752319151   -4.14679968776824
C         3.31238940955408    4.26839184777673   -3.07725394039981
H         3.82662569534420    3.50321718320486   -3.64053256581900
C         2.42981501880426    3.91186343791839   -2.07577514742572
H         2.24994595201955    2.87122621840646   -1.84760348062292
C        -0.06029813542384    5.89166037514983    3.13869933717298
C         0.27552550036342    7.23999090373139    3.03592200052247
H         0.49052194551717    7.67477063035663    2.07100644422448
C         0.30047500919649    8.03977089396341    4.15979956751738
H         0.55933722544291    9.08482370855463    4.06067697416011
C        -0.00004917020468    7.53698272430495    5.43158041102745
C        -0.34653455482768    6.18274041905313    5.51423431054724
H        -0.59578394620445    5.76471042940796    6.47950115888583
C        -0.38436721020048    5.37936901691868    4.39522902731286
H        -0.65197030965932    4.33577458006285    4.47447402165483
C         0.22227898817151    7.76926322749421    8.10476061493463
C         1.29180358252372    6.90006427341972    8.36791352138503
C         1.39918796203960    6.26644415744174    9.59695201934401
H         2.23663792401684    5.60555296935592    9.77648566907069
C         0.59177549946167    5.75292661077886   11.91266825221756
H        -0.19170923771268    6.06033054383019   12.60095914868868
H         1.55869017778754    5.96806876166484   12.36595003573360
H         0.52470937503782    4.67452031959004   11.77033511929069
C         0.45979569407579    6.45965991567161   10.59770756143176
C        -0.59527937900701    7.32215472642484   10.34209714543915
H        -1.33761269110394    7.49118588879563   11.11053570920767
C        -0.72012622880104    7.97613712695357    9.12667813240852
C        -1.89619851624800    8.88270590674776    8.90803160418607
H        -2.48561145609683    8.97386088501815    9.81764428523925
H        -2.53812871837354    8.49211275973361    8.12005862707976
H        -1.56440112069402    9.87331124276344    8.60464963637972
C         2.37743903788876    6.64599100629740    7.35901871697828
H         2.33966087917274    5.61019228345895    7.02144115762575
H         3.35440998134181    6.81106798768680    7.81257996231607
H         2.28108765364147    7.29114035724140    6.49144290558966
C        -0.08345996075118   10.00200825343158    6.51385161314690
C        -1.17183865705439   10.57230604794986    5.84004089513429
C        -1.23575073258211   11.94470056492040    5.63383773143697
H        -2.09159147719501   12.35578011295457    5.11523985299477
C        -0.23387978671161   12.79014347029062    6.07546405701237
C         0.84298775976631   12.22838020169074    6.74992007910223
H         1.63368698328530   12.87491980840820    7.10630815819861
C         0.92593106070327   10.86600144993068    6.97758708191890
C        -2.33051982439159    9.74623382738865    5.35550350976674
H        -3.25691094789049   10.10863496187337    5.80117768050861
H        -2.21090593299723    8.69694847399744    5.60584371144434
H        -2.42815497215344    9.83414508147242    4.27365280147108
C         2.12498428664946   10.32118174458780    7.69764913886791
H         2.76281167189128   11.12964905070689    8.04792202600639
H         2.71064369799560    9.68354142559438    7.03710526384954
H         1.81867553430183    9.72079630517386    8.55143364494372
C        -0.29876921971756   14.27046471491656    5.85077075281577
H        -1.17107998317443   14.53720202583923    5.25911141368427
H         0.59451350419079   14.61637488648509    5.33189556609394
H        -0.35263956521879   14.79565479656493    6.80422772141918

