78
CSD_code = DIGWAT | q = 0 | S = 0 | Stoichiometry = C28H44AuBN3P | MND = 2
Au       -2.90943126239228   16.64117119095787    6.31585454408055
P        -2.76459818775839   18.86634031345706    5.49424424888715
N        -5.35043722367012   13.78425354688671    5.66774339968761
N        -3.91613712681604   15.20718366553236    9.62419485450115
N        -0.71367892643167   14.35263220301509    7.41047928963696
C        -1.79686838249827   13.87925003076036    2.73925406864061
H        -0.71892929054612   13.89687614678128    2.56065919845227
H        -2.27617860485800   14.45613865918069    1.94446670439866
C        -1.10598207315099   19.64469244851805    5.41163867827525
H        -0.42836686531036   18.97464653280144    4.88417973431858
H        -0.72919549957372   19.79557356344448    6.42172522554325
H        -1.15033914161228   20.60147606293789    4.89114138532935
C        -3.59010899171006   14.94017133829370    8.54920206264734
C        -0.39811635120238   15.76067547749951   10.84049162240565
H        -0.20426818327462   16.70573796103213   11.32396543828236
C        -3.27274786500779   18.92328113348388    3.73773549560336
H        -4.30394795586784   18.58186645251408    3.66085137688790
H        -2.64243754430800   18.24587596558531    3.16325713116185
H        -3.18895352163547   19.93266512669500    3.33427440601453
C        -1.44396004557176   12.01869361863733    9.04365913509171
H        -1.40698702098648   12.08425384510455    7.95676621299909
C        -2.29753983139134   12.44086701503206    2.71506956256770
H        -3.37938860440565   12.43458914728319    2.86109613778433
H        -2.08102679745621   11.97969133363279    1.74887529980610
C        -1.90411899952419   12.30267003083759    5.19020892677117
H        -1.39922863569440   11.72425155352498    5.96528320495788
H        -2.97630776461312   12.26346884412533    5.39130245045983
C        -1.46262320772808   13.77920063325511    5.26181755249654
C        -1.63291940884058   11.65297113001770    3.83579569552940
H        -0.55731288143750   11.59580058091644    3.64842870286969
H        -2.01637028628921   10.63057211797634    3.85246880308747
C        -3.78288503244138   20.21150379380968    6.20725848707163
H        -3.51187918126248   20.35467038765911    7.25200973934516
H        -4.83006652982111   19.91609902291797    6.16001498515050
H        -3.63763478538596   21.14190967124598    5.65756643145965
C        -2.11958453245767   14.51745519077842    4.08757288046754
H        -3.20167274868343   14.49990414585560    4.22323697689235
H        -1.79520865853813   15.56535530934966    4.08702676884880
C         1.20943282423902   12.78774386768947    7.18916345153438
H         0.59519130790433   11.91234375978725    7.00548706439959
H         1.40792625602713   12.86377165592013    8.25585696291217
H         2.15727703379129   12.65268909395683    6.67229346765364
C        -4.43707590102805   14.16085635031500    6.26432832947571
C        -0.73627890667350   14.47402797183617    8.83333303096549
C        -1.84122248196007   14.33109327382467    6.63390862840470
C        -1.65966653112204   17.87701352258984    9.14919483024561
H        -1.81310145210846   18.70463025951842    8.45519105924284
H        -1.49466671817358   18.29080738323259   10.14078281295759
H        -2.56455156389696   17.27633816421004    9.18551725697476
C        -0.45913698779189   17.02658804301214    8.71087925725778
H        -0.56267643269090   16.82698520316326    7.63950303431657
C        -0.56953890637982   14.63302519490075   11.61421601081527
H        -0.48473227608935   14.69115602936492   12.68928478315424
C         0.82733702821746   17.82296762970055    8.94897462311747
H         0.90057165401094   18.13237447531413    9.98834348856864
H         0.82974614799825   18.72028975022261    8.33154097310544
H         1.71355474794498   17.24315019763202    8.70951754338483
C        -0.99584554129567   13.34040783853341    9.62353628097309
C        -0.56337028686155   10.85039379728586    9.50014907894546
H        -0.72006594727814   10.63532423530290   10.55407452965132
H         0.49284872492556   11.06180076002192    9.35253362922618
H        -0.81798677196468    9.95504783344247    8.93587914915066
C         0.06815000996077   13.93478541962427    5.23149878970349
H         0.55919053172429   13.09411359439433    4.74674362752665
H         0.33029141349520   14.83939400224609    4.67864100213806
C         1.55382936852712   15.20088929280854    6.83194015903130
H         1.86653132694737   15.28995015438829    7.86885674511534
H         1.14502040913665   16.15048086930271    6.49671365001417
H         2.42994511153573   14.97475490841127    6.22745336716514
C        -0.49563797608153   15.70907669794376    9.45607752274859
C         0.53185762413878   14.06925529030197    6.69022424631218
C        -2.89906691578772   11.74131642281125    9.43312851249276
H        -3.54521383853105   12.54845230621127    9.10173639922378
H        -3.00093863267014   11.64885539175576   10.51148767077589
H        -3.23597322700222   10.81520802508533    8.97158763021311
C        -0.90000818297092   13.44183507274687   11.00423789359839
H        -1.09583623248641   12.57315991404987   11.61321992345167
B        -3.24757185948073   14.65961115579023    7.08514676566986

