81
CSD_code = DIHBIG | q = 0 | S = 0 | Stoichiometry = C40H30ClN4O3S2Tc | MND = 6
Tc        1.44442105914909    5.79819044725346   10.89635150481059
O         2.40345523677448    5.09370545317456    9.79673637664361
Cl        1.37186539478697    4.02478612325288   12.40924389788384
S         3.34209082401323    6.70172436147771   12.28512728445386
C         2.62312701176932    6.35933975828969   13.82713016702317
N         1.41595782072630    6.78232245866107   14.17777539070644
C         0.41430880790840    7.02977794495181   13.37389143127333
O         0.41308027845415    6.69997412450204   12.14378260861748
C        -0.78818985855496    7.64198293745649   13.95138554800545
C        -1.83622254313514    8.01845306735740   13.11274196478100
H        -1.73708600604702    7.88988125652365   12.04416221653086
C        -2.99161045951806    8.55304776868968   13.64846534743987
H        -3.80371744347372    8.83815964441708   12.99621598046004
C        -3.10534734570224    8.71859945630750   15.01976589236641
H        -4.00989216929703    9.13509423146140   15.43796342399486
C        -2.06217482122607    8.34922412369409   15.85690191043789
H        -2.15707199405519    8.47910368167874   16.92469717648968
C        -0.90523456454192    7.80968482485081   15.33018192298587
H        -0.08725052305983    7.50165433837843   15.96240632744503
N         3.35220561802730    5.78331911579610   14.78547258266086
C         2.72367948460182    5.38210098277067   15.99500409383399
C         3.30922365093108    5.73345771653027   17.20505174916965
H         4.22714188264245    6.30244562512974   17.21021214738238
C         2.70518415204998    5.35629877553105   18.39072923334800
H         3.15568908481790    5.63266562759150   19.33222770301116
C         1.52464605571928    4.63147058003193   18.37024811909801
H         1.05372590325889    4.34261317500827   19.29797806648854
C         0.95548754126499    4.26859630364187   17.16031634299168
H         0.04532186679587    3.68852575913070   17.14298613142235
C         1.55198434763718    4.63596563883283   15.96729297618458
H         1.14040607710475    4.32937510382300   15.01768283057669
C         4.71808968255605    5.44834381844391   14.63717736728984
C         5.12306681872956    4.15263263425009   14.93893492539576
H         4.38800830203696    3.42528421772373   15.24822914832068
C         6.45503441747821    3.80583615939826   14.81537430911367
H         6.76711853842332    2.79706790509342   15.03954163045306
C         7.38403494350850    4.74500287019026   14.39671221879137
H         8.42309550302655    4.46935693730638   14.29744718614980
C         6.97856438792155    6.03629844520536   14.10560960719643
H         7.70017419442925    6.77133257821420   13.78310800619484
C         5.64809438930248    6.39577384375457   14.22874839060289
H         5.32919101614531    7.40315467741234   14.01377807717696
S         1.30137405493114    7.92403423524943    9.57149886855689
C         0.28735870776566    7.24044564940054    8.35492412569977
N        -0.89086687368837    6.73514414389206    8.63455144960970
C        -1.26669562589806    5.94653793644817    9.60539230939678
O        -0.50901896680578    5.17708325458144   10.26377860578432
C        -2.71723311320051    5.90481795383718    9.88977159589218
C        -3.14554987219730    5.41943256615197   11.12279779144790
H        -2.41383796294036    5.04570682780921   11.82391484905080
C        -4.49101393580960    5.43041536955431   11.43854822949762
H        -4.82078322879692    5.06302813737698   12.39895714168811
C        -5.41319426748725    5.91160470288995   10.52314504676917
H        -6.46491019188151    5.91704350744536   10.76953198734293
C        -4.98984596781219    6.38097448180563    9.28869645629425
H        -5.71293686480447    6.74585437509535    8.57415305479884
C        -3.64541674733636    6.38295778669740    8.96918102476079
H        -3.29944200528681    6.73659238321745    8.01060007989416
N         0.62050010581249    7.41333178161125    7.06393063297550
C        -0.31934725398505    7.15405066984736    6.03388941178905
C        -1.56893884002504    7.76175438109558    6.05762287757653
H        -1.81853579069176    8.42794950665258    6.86893511354743
C        -2.47081592899237    7.51445666691034    5.03931766732958
H        -3.44147034516063    7.98776155680887    5.05833799252656
C        -2.12984091379889    6.67296049602389    3.99292815131558
H        -2.83705994231271    6.48245415154943    3.19998778855117
C        -0.87829648606588    6.08114531767242    3.96387160978390
H        -0.60699387832043    5.42757793055439    3.14861978544547
C         0.02931008786961    6.31849551258357    4.98034198916964
H         1.00559135690336    5.85753406282074    4.96620750294470
C         1.93890768776071    7.74642984239669    6.66075868290825
C         3.03504863246430    7.06431696966927    7.17626011102078
H         2.89542968959824    6.28388708038377    7.91262503580052
C         4.30623869328045    7.39520205881436    6.74507460878432
H         5.15576160047839    6.86876297964024    7.15195461935337
C         4.48819738354560    8.38606930517896    5.79394855734549
H         5.48328260950173    8.63850563067129    5.45988367983250
C         3.39235094379930    9.05031521490080    5.26942940792523
H         3.52883834364694    9.82157492727195    4.52617713265622
C         2.11665344962192    8.73364454335546    5.69939665143335
H         1.25612509294976    9.24912160893365    5.29886915822567

