78
CSD_code = DIHFAE | q = 1 | S = 0 | Stoichiometry = C31H39O5P2Ru(1+) | MND = 9
Ru        9.72511558864570    5.62979368569594   11.15448492981838
O         8.87704506746106    7.20346884664852   10.25415568008341
O         9.01596550984462    6.19507256872184    9.39572367487530
C        11.46858086073892    4.81971950869761   12.26561016964722
C        11.59431358750221    6.26299509918364   12.14401334110129
C        11.72536725072691    6.57277846471276   10.76674176730351
C        11.66102789446395    5.34585445113907   10.02425231229509
C        11.54356531714661    4.26207745060597   10.94808566902199
C        11.71281543081153    4.07545040334102   13.54283489871586
H        11.65558809247226    3.00056515140970   13.39240060838291
H        11.00489537217302    4.36211746265016   14.31674446333958
H        12.71751520199339    4.31371207773311   13.89662644778209
C        11.82954451815670    7.18455002373025   13.29652791336550
H        12.89258272177193    7.17827104768085   13.54683370120722
H        11.27230818479699    6.86305355626521   14.17401508123914
H        11.54338943685742    8.20626218093120   13.05697893077668
C        11.97396238707256    7.90747400430329   10.14826777614975
H        12.90753093270424    7.88237959686346    9.58567658418394
H        12.03870085469796    8.68838993215369   10.90138259953048
H        11.17361252548952    8.16270958353666    9.45120682765751
C        11.88991295383617    5.25997186654505    8.55352801329755
H        11.22286472533522    5.94204448881619    8.02554053064737
H        11.72384956413154    4.25299751749645    8.18040106086055
H        12.91685972335614    5.55387684045495    8.33079724135065
C        11.74442508367947    2.81574042957160   10.62845809535145
H        12.79819666386170    2.57064083120960   10.77638726637847
H        11.48497659846367    2.59462298416146    9.59677670074134
H        11.15169466661748    2.16972787132747   11.27226680414614
P         8.52514150523741    6.21733573966470   13.01608970538175
O         6.97804150531276    5.90967007364835   12.69218348445755
O         8.90936670772629    5.44835529213183   14.35704322571061
O         8.53318731785619    7.71752206823942   13.57651121366298
C         5.85616339103543    6.38604407168552   13.43940143384672
H         5.41235522995848    5.54997320707219   13.98165599443693
H         5.13150538126816    6.77760392835464   12.72432523208593
H         6.14258566150912    7.16983526605673   14.14193701471887
C         8.33702923103229    5.68584853687014   15.64860329727584
H         8.22137261435867    6.75177156485317   15.83717091288004
H         9.03267575451386    5.26032332068598   16.37095404452242
H         7.37455372418877    5.18137985949439   15.73202502601403
C         8.33756436393334    8.86172687165137   12.74402858226388
H         8.85078526736468    8.74339842581115   11.78973746571776
H         8.74547097051852    9.71061012759940   13.29113876337194
H         7.27478103206449    9.01913488910685   12.55756532341788
P         7.97448787798829    4.11990022770998   10.71014731669024
C         8.59328606132055    2.86294915132066    9.55564823260413
C         8.96527033719001    3.30052200129750    8.28516361807695
H         8.87496884642610    4.35138967802971    8.04502559009849
C         9.43387865598472    2.39437946697501    7.35235047042662
H         9.71658739931130    2.73283037902708    6.36676782669686
C         9.53510373609144    1.04994961523572    7.67996739659927
H         9.89967538200946    0.34302032590253    6.95059281173574
C         9.16275776087895    0.61328370742257    8.94060334572992
H         9.23431108118534   -0.43390323962940    9.19257803110074
C         8.69207757231113    1.51434881278084    9.88120292292718
H         8.39204514682673    1.16856251538174   10.86009295745788
C         7.38527092579346    3.17269869039377   12.14537874217293
C         8.34830859166695    2.70955408448791   13.03658079607659
H         9.38979498588863    2.91102003367954   12.82748747316251
C         7.97742390176679    2.00835768085442   14.16810120023504
H         8.72987493207875    1.64879990575480   14.85390330347520
C         6.63525137255934    1.77117774848278   14.42191099031606
H         6.34059897138477    1.22733089466651   15.30637387360177
C         5.67239353449016    2.23523623891525   13.54062560718394
H         4.62699696567532    2.05136589856861   13.73881178139844
C         6.04091690536898    2.93652375039454   12.40472445844349
H         5.28540782137985    3.30363476131044   11.72620088624585
C         6.47038731294465    4.68240760349718    9.86002176849687
C         5.69622199483996    3.71238545785081    9.22201231615167
H         6.01393160185662    2.67823847841510    9.23017676671795
C         4.52762350203072    4.07343526140116    8.57808050753182
H         3.93174908052560    3.31922336234887    8.08676072930597
C         4.12678409783043    5.40014697093144    8.55763934700826
H         3.21734197869899    5.68065007649441    8.04864186284733
C         4.89860166705892    6.36543896896188    9.18249435384893
H         4.59249321365349    7.40062274846508    9.15491800301554
C         6.06673601062490    6.01226709659843    9.83624729184746
H         6.67625440166928    6.77060047754960   10.30667761175314

