55
CSD_code = DIHFIM | q = 0 | S = 0 | Stoichiometry = C25H26ClIrN2 | MND = 8
Ir        5.80438364171683    7.21144742076741   17.66528901548759
Cl        3.71921900664877    8.21608094093923   18.05376301542888
N         5.03403759302142    5.53530546978623   18.51528881838065
N         4.98223221330243    6.21496063461633   16.05426500508710
C         5.00565420644944    6.74131786322311   14.76139354746615
C         4.59233847297646    8.05641855373718   14.54998588632858
H         4.23124954530482    8.62808068295143   15.39172883937238
C         4.62465700073082    8.59217229666979   13.27751324191074
H         4.29195917715300    9.60688209398668   13.11638434158139
C         5.07989870253562    7.83516323175191   12.20883644491933
H         5.11080565805712    8.26000715344963   11.21690390791600
C         5.49621165478935    6.53063283900688   12.41665055300916
H         5.85456600997984    5.93797142912367   11.58772669390089
C         5.45759894918783    5.97954019865294   13.68399190496305
H         5.79407502578214    4.96617189268771   13.85215680040781
C         4.48347486357413    5.03446427411460   16.29369082277962
H         4.03081759765828    4.44137845448037   15.50583999845248
C         4.49765986020615    4.61536963625333   17.63478674604568
C         4.87729615521040    5.03823626339019   19.75412763425354
C         5.19193397844329    5.59708733106933   20.99779707102319
H         5.60280867147140    6.59227387725328   21.05054020269896
C         4.92847279993897    4.86459133019495   22.12534151153377
H         5.15484804147416    5.27730483862331   23.09809416174597
C         4.35572011258532    3.58048454575956   22.05394675802496
H         4.17059983601940    3.04298654082764   22.97275473390152
C         4.01872632319627    3.01878802845027   20.85244184205840
H         3.56208807984449    2.04125331035533   20.79814668647635
C         4.26496467659427    3.74129460347998   19.67422406479968
C         4.02895097561942    3.49184477751866   18.31670089050893
H         3.57145427037952    2.62647470389802   17.87915261417137
C         8.01061573714327    7.12054514688079   17.35370725651278
C         7.53584878163143    8.28603994751309   16.64741629532746
C         6.94300719116215    9.15076234775021   17.59018842514351
C         7.07331948754109    8.54696846004626   18.90301084210988
C         7.80050750917995    7.33204511936956   18.75240377647011
C         8.85447959829818    6.03481889946091   16.76806364746082
H         8.75243967120889    5.11513083262240   17.33999543620105
H         9.90580847391802    6.33028212892543   16.78197849798242
H         8.57485699688867    5.83497242535138   15.73569925753559
C         7.80505504040649    8.57655556212653   15.20671976163782
H         7.75355633928149    7.67346280916698   14.60185782321222
H         8.80786322286506    8.99580495604070   15.10371209545052
H         7.09131551636222    9.29154006351594   14.80559184097986
C         6.40155842814917   10.52339147563034   17.35900967766883
H         6.34606532904864   10.75060873754892   16.29766816865932
H         7.04431126384701   11.26150841135843   17.84103969545982
H         5.40321868760478   10.61286574320298   17.78526183444949
C         6.75247549264994    9.27386702941620   20.17070341429468
H         5.71731173040578    9.61107974827696   20.16465180539472
H         7.39357169741253   10.15225567107466   20.26496795455285
H         6.90441724814100    8.64283974113497   21.04257000503400
C         8.36177718064419    6.45746174122721   19.82701850197169
H         8.11843542370755    6.83937909664342   20.81439346503156
H         9.44789673777756    6.41903120088275   19.72919696802831
H         7.97998411486729    5.43989748781534   19.75390979880777

