84
CSD_code = DIHHUA | q = 1 | S = 0 | Stoichiometry = C36H41CuN3O3(1+) | MND = 4
Cu        3.87603132456901    5.36104398742251   18.08837498113336
O         5.31149657938027    3.92441731760567   17.07185756115841
O         4.44989435164208    7.42012774165803   21.79359169112445
H         4.24429524566993    8.01376695843739   22.52427513241136
O         5.32991793298095    6.07364400156608   19.63474606073537
H         5.10547740191102    5.80776960811065   20.53816489059142
N         4.80036845408741    6.52507270856508   16.55884176946758
H         4.14112206203676    7.20192592518290   16.17550759644126
C         6.73301228525579    4.81839752047344   10.83543044627384
H         6.06840367117381    3.96405259579405   10.73223388679047
H         7.71319340649740    4.47742629785384   11.16003095748682
H         6.84706677897103    5.27031773825413    9.85316965863724
N         3.28537292609500    3.41959702892655   18.68362562343979
N         2.31582852577533    5.75169894029868   19.49804393324736
C         5.28862902970012    5.68512509859350   15.49694350370922
C         5.59352147596671    4.36110139275291   15.79614183460654
C         4.86644742598217    2.63092243243014   17.12458092409010
C         5.36758737138252    1.65909935848029   16.27190920461463
C         6.43926920828447    2.08688460188865   15.28057911644746
C         6.08993300917813    3.49674033109149   14.82968865577383
C         6.27283294730451    3.99009027042429   13.54536804148427
H         6.65538695954163    3.32945630693492   12.78957260255463
C         5.97265384434752    5.30535174650836   13.20989896850234
C         6.15890086806911    5.85487549984720   11.80430814450367
C         7.12494563708582    7.04724719738671   11.85554146454028
H         8.07890333346823    6.74237876311925   12.28011728588759
H         6.72742318158378    7.86178026546465   12.45444336303279
H         7.30089075277543    7.42378419414832   10.85123009968070
C         4.79464865365635    6.31001231340810   11.26650419883313
H         4.90365374100412    6.68769770008348   10.25316075972209
H         4.36621911384202    7.09997307152658   11.87713654969288
H         4.09804601439827    5.47467686534974   11.24930141336486
C         5.48526970276770    6.14540517179187   14.20843097162128
H         5.23736994286454    7.17179461899364   13.98384319146683
C         7.78149292210720    2.15565495056617   16.03695110237322
H         7.71822925502981    2.83254237623849   16.88573015392802
H         8.56516878885287    2.50901556835877   15.37102804462326
H         8.05224751258523    1.16837893409379   16.40360345886088
C         6.57827959274576    1.11377000142715   14.11181398273338
H         6.86595638692769    0.12995118241814   14.47134060078636
H         7.36255883705391    1.44612436674926   13.43782667571370
H         5.64518533766241    1.03202776765153   13.55937730243419
C         4.88700219669933    0.36291696762171   16.40223077306749
H         5.27213199353337   -0.39654372855685   15.74700797631819
C         3.92577183968041    0.01873692025324   17.35081586496807
C         3.41345467866162    1.01856752395918   18.16461262215839
H         2.62493037209742    0.79564076959236   18.86498657589759
C         3.85460384578944    2.33818345261696   18.05536171339208
C         2.54679216430736    3.40011356389457   19.72816412423450
H         2.34561598491139    2.50766302119307   20.31944938051398
C         1.93824036530486    4.64453146555855   20.15786702002903
C         1.78417945732993    6.91457671472991   19.82759571402127
H         2.11882646362960    7.77202858739554   19.25925996273635
C         0.85722442305139    7.05309982750174   20.85088174066408
H         0.45725574917073    8.02361016173939   21.09512866037122
C         0.46453098487645    5.91890149774742   21.54816055803941
H        -0.25340726656581    5.98849124382341   22.35086173788562
C         1.00642432581221    4.69584905926271   21.19535436548604
H         0.71619767956686    3.79077584326822   21.70537257183022
C         3.41087307113085   -1.40432062820407   17.50919069510501
C         4.08306687415739   -2.38763195155089   16.54784464289109
H         3.68441506401423   -3.38455539916307   16.71907197856545
H         5.15726486188986   -2.42739653043055   16.71219178705887
H         3.88427283843709   -2.12492133923248   15.51156376953402
C         1.90037618590126   -1.42395785304331   17.23486049989558
H         1.35487762183393   -0.80652402262823   17.94300108830281
H         1.52377253257929   -2.44050007788047   17.31397086984518
H         1.69373372140931   -1.05776063080602   16.23162741788541
C         3.68847050201360   -1.87387768838871   18.94440382685332
H         3.17665046844999   -1.25400416222905   19.67518456077615
H         4.75545444286801   -1.83904253829914   19.15327084532891
H         3.34694550879563   -2.89787704739747   19.07178508889387
C         5.91603185085077    7.27383872352666   17.18493397643868
H         6.64192425228416    6.53417908550594   17.53156014665329
H         6.39948170190027    7.92642942844732   16.44795663138796
C         5.43561770172329    8.08458509474363   18.35318793521724
C         5.24858436959754    9.45896261080944   18.27913552151412
H         5.46321631376237    9.97463528042932   17.35604308105105
C         4.80952289102194   10.17127961136743   19.37964314596007
H         4.67653958356759   11.23901864422677   19.31483410697722
C         4.54082137441236    9.52079830979457   20.57298366744040
H         4.20092100712239   10.07653378203974   21.43480560360868
C         4.71228533031154    8.15017188035476   20.66233040204924
C         5.16297287989807    7.43227380851790   19.55144154462251

