65
CSD_code = DIHJOV | q = 0 | S = 0 | Stoichiometry = C30H26Cl2N6Pd | MND = 4
Pd        7.41516872688404    1.90659832472626   13.61279954157208
Cl        6.82202583835055    1.97280350207565   15.81125954702991
Cl        8.54509932297786   -0.05491344450359   13.86786262114605
N         8.56235293619627    2.49878519395410    9.65447972798432
N         5.15865505277809    5.22293818828810   12.49977715674777
N         9.72453115856836    2.43745984547511   10.25992137461240
N         4.88120208900929    3.39005140354163   13.46541112054276
C         6.22025567674461    3.45218629675937   13.28888916585388
C         8.13638610786193    2.03184011769494   11.77248395921196
N         4.23807185890494    4.43196130351240   12.99787899800119
C         8.50865313682608    2.75034621626212    8.27137808356648
C         7.65962141392351    5.19652468852898   12.14961443633414
N         9.45734691708337    2.15601077230459   11.51189149820532
C        10.04653580994725    5.34899861047827   12.42909229571596
H        10.93118479119024    5.17433103579326   13.02267749900207
C         3.91142527573030    1.54193911741580   10.81859588120275
H         3.26893333657826    0.85313262659860   11.34602623736594
C         5.55745607860740    3.30098474745804    9.44247626305983
H         6.19552937958031    3.99621172309202    8.91581864483000
C         7.54578090983363    2.25614576354098   10.52637138676925
C         5.28328451721435    1.45240816319294   10.96542279727242
H         5.72970820927739    0.69425212251549   11.60585110053603
C         7.77440480230599    5.82142287679990   10.90865318495119
H         6.89277702104059    5.99470014549669   10.30819667372893
C         6.11967384555892    2.32895407294309   10.26876138086191
C         5.54555087334495    7.59825988924524   12.18911239403212
H         6.42327308257554    7.53936841384404   12.81402879672819
C         9.01676918424907    6.20119674163347   10.43652111726637
H         9.09593305886941    6.67897822954876    9.47074452510902
C         3.63452663956387    6.52679605666142   11.17127350964753
H         3.05594782665014    5.63007222637702   11.01448159377411
C         8.81010872871239    4.95403449515574   12.90531816277711
H         8.71254309678761    4.46863760568663   13.87443435003062
C         4.78682496683659    6.46065149454349   11.94397877738015
C         7.59355207870211    2.31182934666555    6.10637942227213
H         6.90886449876515    1.76817469338596    5.47390645986393
C         4.01640705455042    8.87317270899881   10.84607413051036
H         3.71834899434095    9.81625715030526   10.41428979946670
C         9.33368059404402    3.94536394240361    6.36978763114786
H        10.00124948845065    4.67789517992343    5.94259706747818
C         4.18425861844714    3.38949595466111    9.31214033948725
H         3.75804937773823    4.15046252113025    8.67454416570679
C         8.44160303556852    3.26156318232560    5.55970009066310
H         8.41199154914495    3.46303443065690    4.49987666441545
C         9.37301972540815    3.69239254175928    7.72867775038528
H        10.06108395675688    4.20930410315208    8.37894965580512
C         6.39847380328292    4.68150718996856   12.64938296623976
C         5.15582207952382    8.80217236120655   11.63140011732220
H         5.74142178229854    9.68902839833538   11.81835378601374
C        10.15354876407168    5.96883497260244   11.19386092945286
H        11.12138991118671    6.26983961690548   10.82182419199133
C        10.52586915353786    1.98902295970227   12.45347059828044
H        10.77098363356874    0.92755136870581   12.53907638526869
H        10.18437685140246    2.32864478454840   13.44031267812929
H        11.39208583802321    2.55081020713128   12.10963847471820
C         7.62469169653114    2.04649553845625    7.46316172692082
H         6.97759662464676    1.29741791648766    7.89275012113055
C         4.16054260578308    2.33248283867518   14.11216544205138
H         4.18315880958999    2.48756239548232   15.19367508141505
H         4.66722059277455    1.38042356368188   13.90603133591741
H         3.13416647528831    2.33101514514658   13.75083798250303
C         3.25450927745496    7.73775306267235   10.62250417372460
H         2.36147867073187    7.79480763231052   10.01918614608084
C         3.35905041480703    2.51147342246080    9.99621921277252
H         2.28706237300614    2.58314230350883    9.88924166999974

