89
CSD_code = DIHLIR | q = 0 | S = 0 | Stoichiometry = C40H38BClN8Ni | MND = 5
C        12.46541774257584    6.69414606901251    6.13293291371736
H        12.92224753741527    5.93523739671313    5.50004406383270
H        12.71227298597511    7.67638070984581    5.73894288465877
H        11.38609315659421    6.55909542481265    6.09428171687575
C        12.95930981667102    6.57958542251907    7.52935194850327
C        13.65629212536893    7.51234028600404    8.27378497862345
H        13.97806578533922    8.48103061614116    7.95006012061812
C        13.88250867318452    6.90877785163518    9.51949385055276
C        14.55668505684274    7.45878656222654   10.68867406305339
C        14.64887854153455    8.83898378891818   10.86376747296912
H        14.22795573893214    9.50232669545311   10.12255739168299
C        15.25811363601632    9.36413313528251   11.98766679219476
H        15.31941770162545   10.43556280899310   12.11236060314175
C        15.78355905491797    8.52346880059033   12.95493132547070
H        16.25476070432822    8.93716205448350   13.83413056558948
C        15.70241230161423    7.15051995277946   12.78845949464795
H        16.11170259085168    6.48773744415849   13.53661391679226
C        15.09920701129924    6.62248231694584   11.66400334822675
H        15.04960484377348    5.54132110888469   11.53991293427969
C        12.91686931885804    1.59230306078761    6.36074707329136
H        11.84796132169290    1.44201792213753    6.49822840669220
H        13.36664846094785    0.66217457614188    6.02399389654098
H        13.05629476314454    2.34867354085472    5.58970082069147
C        13.55022053733070    2.01526825887504    7.63638722999032
C        14.62730452368783    1.44766027807361    8.28906110383112
H        15.21391592017586    0.60816797313132    7.97646380019013
C        14.81908873189056    2.22040385331828    9.43827351486114
C        15.91640387548524    2.10917839005893   10.39582876786320
C        16.29409996906070    0.87410568626049   10.91191927247247
H        15.74351441603450   -0.01118848443270   10.62971913170068
C        17.34413179222446    0.78947462111315   11.80680619211909
H        17.62454086921368   -0.17086090009877   12.21469079907284
C        18.03036315309574    1.93056403594731   12.18775190557234
H        18.84522817960762    1.86115183957794   12.89367213894814
C        17.67170807638291    3.16040705117244   11.66119471680453
H        18.20989974614992    4.05227218849421   11.94912399399989
C        16.62502600465466    3.24999817438635   10.76424634043776
H        16.35607588823361    4.20312437465529   10.32880449937482
C         9.04706479907374    4.22478854986988    7.16081502640905
H         9.36317507124493    5.17294330939639    6.72731883935953
H         7.96089012001851    4.18921391946476    7.16707559706032
H         9.42336158562481    3.42324820842920    6.52784251217721
C         9.55680932893949    4.08169099344718    8.55011283629340
C         8.84616725753342    4.01920076307042    9.73058345544195
H         7.78206168647032    4.04516160783504    9.85020983379502
C         9.81273776943718    3.87720785526130   10.73964246889924
C         9.58895912056743    3.80929714926496   12.17950665105281
C        10.36440381990362    2.98359153923835   12.98795269991733
H        11.12715538712374    2.36890359801890   12.53713608592627
C        10.16428320591066    2.95845127251616   14.35555636171774
H        10.77673637064455    2.31900077839606   14.97411520686890
C         9.18669416934387    3.75045901702522   14.93373987804281
H         9.03783402952368    3.73539081119156   16.00383736500252
C         8.40221958970409    4.56488566709014   14.13402953913025
H         7.63662415195371    5.18358622467233   14.58064517312263
C         8.59855953537036    4.59392824148037   12.76642511352542
H         7.99513946659351    5.24171567453451   12.14652782172116
C        11.02045392359678    7.18130608963125   10.96479212763427
H        11.70058170638614    7.98294728428839   10.67753277757409
H        10.04764286314801    7.61725208662984   11.18022965338182
H        10.92200853659365    6.49527750264500   10.12975310177463
C        11.52258741873324    6.47986914183191   12.17598646090253
C        11.15908502232811    6.78490002686014   13.48853991438208
H        10.47951059973395    7.55584487286599   13.78661764977356
C        11.83444358625024    5.88138027045207   14.29865123316140
C        11.79648728816923    5.67704568836247   15.73467583982451
C        12.54359516115229    4.66407907258614   16.33905974849563
H        13.17984932312391    4.02813973606762   15.74261524478449
C        12.46904574089054    4.46125042817174   17.70394642628890
H        13.04915378854710    3.67143140045204   18.15859742675340
C        11.65441356828399    5.26054611684416   18.48912049870370
H        11.59726828892592    5.09722226452085   19.55522420709229
C        10.91154592564376    6.27006625755546   17.89924348015625
H        10.27391417827298    6.89660857532247   18.50596201410854
C        10.98082976494912    6.47717158851163   16.53519821130000
H        10.39432574849863    7.26101068140631   16.08229079213266
B        12.10227504059974    4.13782172818870    7.97199519725673
N        13.33800213772411    5.69065905054786    9.49731994374486
N        12.78169712459851    5.49116969128864    8.30113325415405
N        13.88507370588690    3.17404680767000    9.47205080798190
N        13.12944558426723    3.06175790776026    8.36814974848323
N        11.02430728993893    3.85722845890879   10.18762104425107
N        10.86726397167478    3.99207932555684    8.86214069351227
N        12.38246003511311    5.45914558047467   12.18545396729534
N        12.56984936989113    5.12928855369802   13.46465295446058
Cl       13.73438580126286    2.82160205199822   12.31423800044029
Ni       13.19097810230153    4.28608518498447   10.82486723363609
H        11.83420266857745    4.07138736302721    6.82604308899528
H        13.10313971730579    4.26653914485044   13.63014080221837

