50
CSD_code = DIHVEY | q = 0 | S = 0 | Stoichiometry = C26H18AuClNO2P | MND = 2
Au        1.60864553603449    1.25525983859141    4.27245923084392
Cl       -0.47034096950999    1.11499097965849    3.39660510667112
P         3.68841992514945    1.41989289252173    5.09877245043819
O         6.45722338042774   -0.67856686518625    3.00539032808206
O         6.30915484850051    1.63893733397761   -1.86295378727671
N         4.91618973289315    1.17522047503113    3.97744244110653
H         5.48297013281852    0.31236491915164    4.03639522108727
C         4.87109116834666    1.67804983817079    2.69790954914419
C         5.60573073465874    1.07059159087159    1.65398299829546
C         6.36852295905335   -0.15412667114840    1.89316209257449
C         7.03145138965889   -0.77236356915854    0.73108372747922
C         7.71629578424719   -1.97280158973900    0.91082187739356
H         7.73344228429041   -2.41020182665415    1.89814180863053
C         8.35491983398719   -2.58473885895958   -0.15148839602062
H         8.87873259980931   -3.51663495492866   -0.00009575192275
C         8.32281869882796   -2.00118790068782   -1.40981654330784
H         8.82112554446592   -2.47802112837569   -2.24040016717609
C         7.65151062939522   -0.80713542985622   -1.59973566779714
H         7.61430223618854   -0.33302027793354   -2.56924077928004
C         7.00007023352832   -0.18462394302821   -0.53862203933650
C         6.29134347448023    1.08779895601322   -0.77935015700178
C         5.55056092112123    1.65380914885853    0.37266793690371
C         4.78429015410282    2.78649219108001    0.14421397838752
H         4.76583088273503    3.19885979875977   -0.85291938849056
C         4.06064241799035    3.36908555360324    1.17547430120844
H         3.46393727948288    4.24882642387694    0.99084321254197
C         4.10954862239843    2.82270744805108    2.43693069241701
H         3.57147310674219    3.27717948316731    3.25945220586058
C         4.12028910524027    2.98899589273722    5.90223561572883
C         5.45080557395481    3.34924821248307    6.09156616594502
H         6.23596458666163    2.68503076570748    5.75767853949571
C         5.75026262814845    4.55238831833061    6.70188522747938
H         6.78091240782980    4.83895722235988    6.84981066272050
C         4.72949522589720    5.39118322236254    7.12439512923475
H         4.96896078435584    6.33021603009637    7.60047104932602
C         3.40457923131272    5.03243546606121    6.93495719075722
H         2.61241395006995    5.68895013870532    7.26206620881849
C         3.09728934521604    3.83213093114251    6.31916983870313
H         2.06812421281522    3.53738401620235    6.15256921309556
C         4.14090388237193    0.16628697390837    6.32196344879642
C         4.21714119546960    0.46441662222545    7.67804960650148
H         4.07709049155847    1.48217742678727    8.01523906876202
C         4.48088827653250   -0.54363663919609    8.58817622225049
H         4.54949435776298   -0.31065568967246    9.64036640831673
C         4.65314931475744   -1.84728729578606    8.15302713665328
H         4.85965471378348   -2.63048870358242    8.86684461448126
C         4.55079488274956   -2.15064374573603    6.80418483447533
H         4.67191007836932   -3.16902706581567    6.46687559083527
C         4.28417084841223   -1.15063389677196    5.88892584281172
H         4.18360136481540   -1.38967205823851    4.83841590338552

