53
CSD_code = DIHVEW | q = 0 | S = 0 | Stoichiometry = C20H31ClZr | MND = 12
Zr        3.97728596345043    0.79972115591861   11.92967474287482
Cl        5.20720673125313    2.49973029987071   10.83697053818359
C         4.60492171311654   -0.35550511662938    9.69369604984468
H         4.70043782575478    0.15606598843238    8.74539834984133
C         5.65896514188069   -0.62739969453097   10.58584958979027
H         6.69742875300854   -0.36009630151580   10.43205051653940
C         5.15644926837621   -1.43427404741300   11.62368266735793
H         5.75765456755165   -1.94708479232847   12.35991772243552
C         3.77726848035423   -1.63705029864926   11.39388208738359
H         3.13001760042518   -2.31941025485958   11.93320850553030
C         3.44275084385758   -0.97773698194233   10.18699011161845
H         2.50624616870812   -1.08156732292965    9.65539016764070
C         4.98286579951398    2.07820382348075   13.86195779090469
C         5.52534245001259    0.76620675635974   13.91880422059066
C         4.47144292582351   -0.12974543404562   14.25148435622081
C         3.27033801758706    0.62329438198933   14.34108143913171
C         3.58723076117554    1.99668723696449   14.11130681348894
C         5.78268006722195    3.34773175873488   13.78258379214115
H         5.23400634995443    4.13301794223296   13.26349438169212
H         6.72212832216802    3.18873591529601   13.25645717525128
H         6.01256683007423    3.70489985191310   14.79002493777614
C         6.99447902472658    0.46165587244714   13.78904112928708
H         7.55289630303238    0.94435080749477   14.59415458355457
H         7.38948108564544    0.83698134350460   12.83996897573074
H         7.19006570168158   -0.60769567412460   13.84515246985396
C         4.58795397048968   -1.54355358721693   14.75415306494163
H         5.60907365625238   -1.91184338695816   14.68616972375793
H         3.93080352592680   -2.23330979200160   14.22299891127416
H         4.30243658650266   -1.57184242655982   15.80875308756770
C         1.96152871118724    0.05614421293908   14.82076537848775
H         2.08186300261920   -0.36886130514291   15.81968356204597
H         1.60244681135903   -0.74026852447269   14.16340065575215
H         1.19590619674739    0.82610473324417   14.88028526999019
C         2.71197612628955    3.18124216303842   14.41679006369441
H         2.83189305548270    3.46245221110918   15.46634436652194
H         1.65777610310527    2.96622079190844   14.25198631021080
H         2.99149024091097    4.04090811254792   13.81034546512611
C         1.81021628850760    1.23938432994309   11.58571886369545
H         1.30374110746564    0.30297875537233   11.27989521321625
H         1.30909801628447    1.54168734660535   12.51984233435033
C         1.43899149432402    2.31572482043250   10.54830365739686
C         2.10045320411770    2.03277362439121    9.19311321297046
H         1.80489084234093    1.05586257088704    8.81238217256015
H         3.18732708673009    2.07332428808347    9.28522076001204
H         1.79289076691950    2.78131392653948    8.46376903865904
C        -0.08651280172687    2.35218613256516   10.34712498550024
H        -0.36663135376050    3.14083487040123    9.65130338257053
H        -0.59476816276667    2.53672906364240   11.29204093135140
H        -0.44309841713695    1.40423018589966    9.94787546934589
C         1.90097121869687    3.69127980321223   11.04706941675910
H         1.74309417987789    4.44697012082598   10.27940771895272
H         2.96515782496166    3.66420057837255   11.29423968947538
H         1.33607402192689    3.98670916475883   11.92939417914672

