68
CSD_code = DIHVAS | q = 0 | S = 0 | Stoichiometry = C25H42Zr | MND = 12
Zr        0.14637697103794    3.67049344204757    5.67053301568875
C         1.31299267133523    5.96676900622337    6.03185032223210
C        -0.03327524059227    6.30327188975379    5.80311363534965
C        -0.80090825264896    5.79923293648104    6.86610517989270
C         0.07867469510329    5.16432792574352    7.77202652248977
C         1.38518619921716    5.27906771851422    7.25877972922544
C         2.75444879907925    3.08894061087988    5.68281420628611
C         2.20472476327121    2.88365928978187    4.39202641932127
C         1.30998980255254    1.77849473214054    4.47199896397590
C         1.30357966040836    1.31749070130675    5.81943796053828
C         2.18353705386672    2.14283262808321    6.56967059645364
C         3.98989632613298    3.90621455277539    5.94713670635898
C         2.71910830582208    3.57251287158309    3.15509879534265
C         0.67679895813392    1.01401952323933    3.33973812946155
C         0.79621526975695   -0.04596589764862    6.20587022882887
C         2.65196029119182    1.90837751654450    7.98184644523455
C        -1.69745554493632    2.50320119142415    6.22907665476367
C        -2.12299820102378    2.16039272259919    7.67694823164464
C        -0.90793158879930    1.85791667931925    8.56736894244678
C        -2.92622671367359    3.31558786582627    8.29030390051662
C        -3.03836995634465    0.92184344503312    7.67721318589022
C        -0.50530546138598    4.23405289556927    3.57612323823618
C        -1.93513765024405    4.45771192494966    3.04283551569237
C        -2.61643265046356    3.10495402717022    2.79485334327620
C        -2.78840118922609    5.30005811977188    3.99986882845208
C        -1.87359539602026    5.19936983111043    1.69386120392570
H         2.15118126981351    6.32510151950214    5.44753135629893
H        -0.39108742815152    6.95409044294957    5.01853409085801
H        -1.84794271027351    6.01047950397618    7.03388364002762
H        -0.16612722843704    4.85001359930135    8.77869941179214
H         2.28941170098927    5.04339653107493    7.80150140067896
H         4.85222129199009    3.40744897038047    5.49538124487387
H         3.93312530149699    4.90444827097903    5.51520258487365
H         4.19038354708612    3.99873142249087    7.01199675319756
H         3.78207827371531    3.35365250458691    3.02684982534617
H         2.20251046760395    3.23111702161771    2.26064415895889
H         2.61247542067101    4.65839602814242    3.21892532891930
H         1.05290148301323   -0.01185735434865    3.33361914273463
H        -0.41077957129062    0.96758164993651    3.43660143540230
H         0.91953601271850    1.45460649329548    2.37494108168344
H         1.30833292688941   -0.80066193503280    5.60313478856711
H         1.00771771019694   -0.27034959030843    7.24827197510931
H        -0.27304234167805   -0.16659970091701    6.03070787572364
H         3.69091952345202    1.57076038066060    7.98035535981648
H         2.60186776368220    2.81458832123951    8.58910395070183
H         2.05708743851063    1.14341271540588    8.47502568997639
H        -1.56703536856572    1.53466165518620    5.70823035352105
H        -2.60041496048017    2.94167154075850    5.77366357676352
H        -0.52280423534721    0.86586797957503    8.34938452311269
H        -0.11123804075931    2.58990953024446    8.40121901696055
H        -1.19206078366871    1.87845892680719    9.61949807152655
H        -3.27656203019895    3.04715132655408    9.28626612534729
H        -3.79925059187230    3.53995522900081    7.67933124854899
H        -2.32470623701473    4.21510683421092    8.37206356222411
H        -3.92563367205228    1.10428237420081    7.07373388091276
H        -2.52145951727251    0.05505667210437    7.26864357246686
H        -3.35989453470145    0.67729454310147    8.68857302940269
H        -0.06545732866034    3.50663303476425    2.87807078726839
H         0.04776467206887    5.17618978147536    3.39458580557351
H        -3.65088267234653    3.24618180747771    2.48534678905146
H        -2.60230324939900    2.49109031407945    3.69225505055394
H        -2.10125856243663    2.56426349474028    2.00253114840948
H        -2.79643122581324    4.86610774989215    4.99980137282234
H        -3.81340350240071    5.36232377411601    3.63548239188715
H        -2.39908008758637    6.31369847119820    4.06570546062382
H        -2.87031840555008    5.32290542905776    1.27302474700803
H        -1.43308687186449    6.18734653730428    1.81670430038488
H        -1.26960556761449    4.64425804901071    0.97827418854850

