79
CSD_code = DIHYUR | q = 0 | S = 0 | Stoichiometry = C35H36ClN3NiO3 | MND = 4
Ni        4.47051703870394    7.93459821327635    4.20309530719506
Cl        7.02441724648054   13.56310339602662    0.58632771172534
O         2.85587279315062    7.43185225653858    4.98707026156304
O         1.06721834950170    8.28237576005062    5.99496263518751
O         8.12048963488569    7.49527291759800    2.90083078488062
N         3.95129925525386    9.66929316242074    4.47865988715213
N         6.03555868207393    8.40089898948562    3.31607365704717
N         5.00517233390487    6.07794741781356    4.04074423377464
C         2.17291799188526    8.37096267787421    5.51787614695756
C         2.95270845660694    9.73458309474248    5.54031052971799
H         2.26297298547190   10.57385190906320    5.40620787581494
C         3.61627592451798    9.80558735645312    6.88898670066727
C         4.76178733140831    9.05593919988553    7.13935905085028
H         5.19104284899957    8.42981554022659    6.34421491842158
C         5.36605194774610    9.09384410731135    8.38151272512219
H         6.25774307446393    8.51251186650185    8.56583462315874
C         4.82740102952927    9.87732983157528    9.38922777770373
H         5.29986205456821    9.90896525146069   10.35960183705622
C         3.68056137812221   10.61530003901131    9.14920990813485
H         3.25508812489656   11.22257459767237    9.93419642450809
C         3.07575078022814   10.58155692611421    7.90569432271997
H         2.18054817241511   11.15552303784508    7.71942887933657
C         4.48332160702651   10.75846429240383    4.03784711595867
C         4.04588294665855   12.06725236682532    4.59384532669589
C         4.70691868989710   12.58244649527536    5.70211414732022
H         5.54005910090198   12.04230170049692    6.12635641134569
C         4.29339572490388   13.78116616424677    6.25566006937451
H         4.80877946667108   14.17605072974362    7.11792196689367
C         3.22322560959899   14.46839549107201    5.70851755378049
H         2.90113476357314   15.40245030113744    6.14338723867219
C         2.56533856448952   13.95761864242128    4.60178454135465
H         1.73160805341580   14.49180473277711    4.17158536780277
C         2.97173091798064   12.75846125529874    4.04409405633838
H         2.45958414631847   12.35365645192387    3.18303406369002
C         5.51504617429064   10.76511631129852    3.02293971069055
C         5.78566755990309   11.97920165187679    2.37514758119693
H         5.23920517833652   12.86449035226747    2.65934580106760
C         6.71909343384682   12.05186270629893    1.37001645649704
C         7.40668247043030   10.90925225129532    0.97338647780296
H         8.12123141108724   10.96028886482388    0.16719335041946
C         7.17248004033181    9.71748194681641    1.61417491055626
H         7.72329513922181    8.84603657339423    1.30419006620091
C         6.24873071651915    9.59925905482371    2.66908544347167
C         6.97030955916736    7.41049717032484    3.28762963582958
C         6.46310733415002    6.08371679931333    3.87161220573072
H         6.81337360916532    5.28412362829739    3.21632165501673
H         6.95520459726371    5.95586276452016    4.84105869840259
C         4.18840011351789    5.40526611431674    3.00157185441970
H         3.15738487551060    5.55668830886593    3.34876029857893
C         4.36370585044622    3.85771295168953    2.87707817926535
C         3.00356319739231    3.29436311012837    2.42472443924681
H         2.23074742207702    3.58417385196725    3.14012766554662
H         2.73343318169841    3.71539976614052    1.45442183993506
C         3.04461282752839    1.77081038680168    2.32359974319335
H         2.06337154451002    1.40797757932093    1.99892857132791
C         3.37929516813262    1.18189742025289    3.69174436888252
H         2.61164309401719    1.46215265440050    4.41632924015350
H         3.40441679286093    0.09183796555999    3.63495235365766
C         4.73864652510623    1.71131268073902    4.14057950536190
H         4.98487774658011    1.29735721099697    5.12498737080342
C         4.69857460404496    3.23780340454157    4.24175832617212
H         5.67480750715725    3.57985917830178    4.59282713902388
H         3.94064693372401    3.52869141152396    4.97458160627953
C         5.41566304230974    3.41232143183905    1.85140106887935
H         6.41117613449180    3.76924438597306    2.11977940557671
H         5.17137546855609    3.81329635860686    0.86712578187952
C         5.46184711197810    1.88446982896559    1.76543203729126
H         6.23041722945557    1.59600095711684    1.03955027647097
C         5.80855687579582    1.29796116495580    3.13209122906372
H         6.78844276410988    1.65687351529979    3.45645606819080
H         5.85764798074083    0.20925333325796    3.06717580064201
C         4.10600921912654    1.35231768607749    1.30981319698182
H         3.85952230429916    1.75173801576851    0.32342826598749
H         4.13979414179552    0.26383991839405    1.23114754432754
C         4.33760227557971    6.17184535669789    1.68833394637226
H         5.36229464496249    6.16100671147401    1.32540810460064
H         4.03528630984614    7.21510051020458    1.85904813096319
H         3.68779610932197    5.75555624158341    0.92407315137025
H         4.76307675339616    5.63292434032478    4.92738743875511

