61
CSD_code = DIHYOK | q = 0 | S = 0 | Stoichiometry = C31H21F2IrN2O2S2 | MND = 6
Ir       12.18333632841758    2.08569015272372    9.01892881624925
F         8.95436090221884    2.81853010061679   13.33791605892536
F         8.40193292484004    2.14762855736224    5.10574776762473
S        12.15016396319710    6.52665489899943    8.68791576144909
S        11.18644975402813   -2.23784524371646    9.41826020788293
O        13.94380803779552    2.66610538528720   10.18665085295995
O        13.63536200791192    1.15311534361734    7.66998234733273
N        12.31556516098737    3.98187975286624    8.30025262462897
N        11.97020726025591    0.19831040712635    9.74194168857840
C        11.08820948501640    4.43010899927116   10.26995510952291
C        10.99949949766769    3.01903976258799   10.35265113966692
C        10.26562053648160    2.49947895141002   11.41195156570882
H        10.14840065621645    1.43501502547290   11.54844742324403
C         9.66412003584609    3.35266505512886   12.31977137535679
C         9.75793083095237    4.73466120379909   12.23709764418089
H         9.27291971697672    5.35185590431884   12.97611060057134
C        10.48071985111824    5.27652687124681   11.19672269351946
H        10.58226427355633    6.34767013407046   11.09630171060986
C        11.83737405287672    4.87954163696009    9.13530724354704
C        12.97157395811865    5.95375120698563    7.26080279887773
C        13.57203225499170    6.69336433340105    6.25586188238453
H        13.58801057864102    7.77054689931988    6.30455243986009
C        14.13805749079397    6.01160305354562    5.19645693148637
H        14.61288634277932    6.56587845792271    4.40151247539185
C        14.09218901474778    4.61968637210834    5.13449560462187
H        14.52664034657750    4.11459985632451    4.28520685830230
C        13.49645677520465    3.87930849288167    6.13233907533497
H        13.44037426187480    2.80431483858408    6.09008576336554
C        12.94192081171689    4.54617158251250    7.22357504643534
C        10.45400237665625    0.06096256068894    7.93375399523790
C        10.67866588756041    1.45605846607216    7.83948621583606
C         9.96461597351598    2.13996428434180    6.86318363853918
H        10.07663701712048    3.20465670969170    6.72436334757816
C         9.08475824971408    1.45541027092602    6.04396339593190
C         8.87161816804148    0.08741988679455    6.13714311046043
H         8.17716980110249   -0.39545611190743    5.46861814721116
C         9.56775350409690   -0.61547119517022    7.09618910732576
H         9.43449696009606   -1.68264200232492    7.20133461446142
C        11.20730097183959   -0.55850686382525    8.98226576652772
C        12.27564153573083   -1.88156075851135   10.73199936910667
C        12.80316884325970   -2.74855067039672   11.67408449884510
H        12.56693232185010   -3.80026926353777   11.64240641028812
C        13.62830742896904   -2.22456346141839   12.64976608310704
H        14.05213983408554   -2.88032646745583   13.39473132742730
C        13.90982226496372   -0.85987392704694   12.69199336041783
H        14.54385915312741   -0.47592862441004   13.47660409268834
C        13.38794631494887    0.00667816919500   11.75631774716286
H        13.58508169010156    1.06539352818911   11.78529042498679
C        12.57233918484031   -0.50489268388759   10.74839472294738
C        15.14754049353453    2.44557257517796    9.90214290799543
C        15.64203825934305    1.72376759629807    8.81336966432415
H        16.71431531851843    1.61608244819063    8.74668032063070
C        14.88442828284720    1.12677874393807    7.80305986883560
C        16.18141134055771    3.00866294627386   10.86047001660645
H        16.87896165818957    3.64959652574363   10.32551763295538
H        16.74397252981948    2.19561973933277   11.31573812909162
H        15.68620314620439    3.58346703355063   11.63957067937678
C        15.66109819660227    0.38001007227062    6.73374034650607
H        14.97047128742582   -0.07910895396059    6.03038365608153
H        16.28043786121376   -0.39010012948141    7.18822296419393
H        16.31107703231592    1.07119156392406    6.20041292969298

