61
CSD_code = DIHYUQ | q = 0 | S = 0 | Stoichiometry = C31H21F2IrN2O2S2 | MND = 6
Ir        7.50654407257779   -0.30068448853656    7.47927826585272
F         8.14923583141414    1.65051642232686   10.20576887395627
F         9.60030077089950    1.07536462967852    5.15855233095995
S         5.78856011837110    2.31596454624989    4.30675188940068
S        10.01814292399892   -1.99976670421235   10.74345947405635
O         7.59483728777211   -2.40771877097070    6.91331215810496
O         5.37168600836371   -0.66468194845825    7.75590228932336
N         6.91517445652554    0.45806498634980    5.69186535164958
N         8.15348282742484   -1.00065514069356    9.27213451617940
C         6.77443854167085   -0.07013291602431    4.43942593573968
C         7.20337058064255   -1.32164201331676    4.00147516558737
H         7.71620930637833   -1.97295837749315    4.68908653985228
C         6.97314084155739   -1.68313996136197    2.69204768220631
H         7.30203043604755   -2.64988724117375    2.34173558648100
C         6.33037093721848   -0.82017193500944    1.80581397566410
H         6.16210870909046   -1.13049831837504    0.78581695908665
C         5.91932163616489    0.43397735802417    2.21169928714065
H         5.43792421147351    1.11648653826960    1.52941340731714
C         6.15127905576132    0.80232595885339    3.52621104850850
C         6.47176491521098    1.69249348530992    5.77151054704718
C         6.64357984688534    2.40971396273729    7.00192919589821
C         6.26972562360618    3.73832413840573    7.19867678197369
H         5.78212770893820    4.28154643178266    6.40221879396214
C         6.53125381883267    4.33997206787777    8.41189631493994
H         6.24825767971632    5.36681193293478    8.58474115891774
C         7.16807352462964    3.62208492164693    9.41438350890410
H         7.39119668201774    4.07358656960643   10.36899251822691
C         7.52352137212114    2.30357134899130    9.19030876336469
C         7.27998252855972    1.63666211586328    7.99834333093093
C         7.52177670026289   -1.41704996992685   10.41001475156683
C         6.17103496420627   -1.27417867254570   10.72165758101188
H         5.51957449599943   -0.77535508028715   10.02408518937136
C         5.71082574270066   -1.76185182793091   11.92520096380689
H         4.66627038644900   -1.65692256232297   12.17695452626599
C         6.57071741023106   -2.38185307455275   12.83042249708287
H         6.18209145889009   -2.75633382220442   13.76514157111683
C         7.91751966496484   -2.50963483138955   12.55397779480887
H         8.59445113493246   -2.97025795055464   13.25589146304403
C         8.38461507638738   -2.01905737682552   11.34624911028417
C         9.44954787030463   -1.21449206063242    9.30746852428217
C        10.25764999509779   -0.74143463344695    8.22067562546541
C         9.49764241119443   -0.10655895186435    7.21325877050725
C        10.23888434477795    0.42482768763473    6.16773987810374
C        11.61786530680190    0.34096594066601    6.08891721907510
H        12.12543855388378    0.78113695724147    5.24422209356287
C        12.32334264619803   -0.30683680314993    7.09319986084670
H        13.39820338588424   -0.37956738695185    7.03203975191180
C        11.64675757637143   -0.84777457370387    8.16645492662738
H        12.17760283570244   -1.34949581403438    8.96252520994713
C         6.99189304089451   -4.65957331617702    6.53425963556458
H         8.06449591705152   -4.74996578363463    6.37996408104752
H         6.47196321520308   -4.93802134976298    5.61962490437635
H         6.68136705732139   -5.33928191447021    7.32465740584801
C         6.64487877823229   -3.22990556168823    6.90833359115067
C         5.30089343693455   -2.97303072865654    7.18800852268569
H         4.61718276837238   -3.80438327100323    7.10352936101683
C         4.75673677679116   -1.74362825157272    7.56660725127333
C         3.25696435294114   -1.71597182209064    7.79986235297673
H         2.94022969907752   -0.70428718076841    8.04178348193768
H         3.00079055388004   -2.37958896709620    8.62370708864676
H         2.73215018822932   -2.05696664560508    6.91031336354899

