50
CSD_code = DIJBEF | q = 0 | S = 0 | Stoichiometry = C16H27N5OTi | MND = 5
Ti        2.28156224653199    3.51481345737337    0.05191764908864
C        -2.04769774866248    2.30029212928864   -0.14767185686912
N         1.14517567157016    5.00330806753976    0.20608327053627
N         2.30801501007882    2.66444623879120   -1.61183084079522
O        -2.51657404666734    2.09742914745257    1.11186430190693
N         2.64857304300221    2.52925261890034    1.69021171877292
C        -0.65269344505529    2.49811039481046   -0.43931201992963
H        -0.43612939004936    2.67774613025645   -1.48942059191410
N         3.88483110207317    4.43150582090753   -0.06625588358441
C         1.95705975452611    1.48663682704863    3.56091353033918
H         1.32225722076791    1.02435943635640    4.29463994255339
N         0.35417793123844    2.47744287538128    0.35168454022316
C         3.73297985948689    2.29141182629876    2.47768053094860
H         4.72250456984400    2.59035227896402    2.16929861687694
C         3.35467206826026    1.65114068255635    3.63368740826222
H         3.99515374268631    1.33508093712627    4.43585529037600
C         0.20052655538213    2.15453196570346    1.74709177493664
H        -0.35245708176641    1.20903412094959    1.86653142400406
H        -0.39572321365866    2.92844677943940    2.26296228621269
C        -3.84444033818254    1.95319714197970    1.02859149617756
H        -4.37671714807432    1.78374064974779    1.94380320925956
C         1.56552114353779    2.03882199774969    2.36130783310139
C        -3.10924567510934    2.28211217191927   -1.03186560517912
H        -3.05128280491643    2.41507638804595   -2.09268905024090
C         0.84646027253679    5.49515285252330    1.52409335020634
H         0.90012360046741    6.59885277416840    1.56424878410618
H         1.56682089854338    5.08639400904301    2.24304981896095
H        -0.17803218849959    5.22087671935665    1.84678050797617
C        -4.26692201915121    2.05613880941396   -0.26494653591026
H        -5.27434810145180    1.98054282402484   -0.61900521712159
C         2.70956072870665    3.29939145856041   -2.83966502942515
H         3.72004006755941    2.98011291786215   -3.15952425817909
H         2.71414179041304    4.38614409775667   -2.70285751897176
H         2.01986968540630    3.05030794495867   -3.66791589031335
C         5.09273344662549    3.71836218580481   -0.40236446566349
H         5.51763109707577    4.07485737466998   -1.35907180431665
H         4.88511212732475    2.64615752148768   -0.48448084931493
H         5.87399644772844    3.86758390612678    0.36510315757817
C         2.46532440611603    1.23431109712051   -1.67455855223651
H         1.80744835560548    0.78712151516210   -2.44363851838665
H         2.21417103749351    0.78735344770056   -0.70419917767666
H         3.50282581512825    0.94292809162717   -1.93653441847040
C         0.22222034842993    5.48734351772682   -0.77503820880440
H        -0.80367408079446    5.09304684312071   -0.60512002996018
H         0.54883000786776    5.17932796258927   -1.77233760636154
H         0.14964858711857    6.58893735908676   -0.75127978519434
C         4.15709676300445    5.83677130329195    0.08973807931822
H         4.85046465525561    6.02269346871247    0.93035475073475
H         3.22803490845178    6.37992690574444    0.27545007508999
H         4.63117231620391    6.25417300778586   -0.81805963272214

