54
CSD_code = DIJBIJ | q = 0 | S = 0 | Stoichiometry = C16H31N5OTi | MND = 5
Ti        2.51446829854306    1.14371202686089   10.02555369753603
N         2.51207075604105    1.31638961053652    7.79228678881029
N         2.70472067215706    1.31514463916115   11.86921121178359
N         2.60186208358781   -0.70144327583519    9.92663724909174
O         2.96462923974119   -1.17037012185079    6.43766225251057
N         0.75952062996534    1.80360150267368    9.93501820632947
C         1.60242931537928    0.83160551107681    6.79519358309661
H         1.84210422186571    1.24598419587350    5.80161680254066
H         0.58454349366023    1.12078840789379    7.07731597012442
N         4.19810586324153    2.21748206870087    9.70739585674097
C         5.21308597805083    2.74808075415932   10.39984881187084
H         5.22185383990389    2.74294110199676   11.47819307785677
C         4.50725601228188    2.37596070531007    8.37705042170612
C         3.91833712202297   -1.21466186250196    9.63381783455393
H         4.28377081418126   -1.88588856004756   10.43435370141568
H         4.62820520288990   -0.38380575473994    9.52963320696759
H         3.92205542322022   -1.79160163391687    8.69263806782930
C         3.59728728901304    1.88753588024378    7.41214971055999
H         3.83346116563526    2.03646763835279    6.34846870434218
C         1.68351826044232   -1.75330723940475   10.27259269699725
H         1.69390275332450   -2.56030063732300    9.51817157668955
H         0.66832827898365   -1.35304892650453   10.33950076499861
H         1.94003744900794   -2.22431004413694   11.24176908320437
C         1.66026402765565   -0.70899965355607    6.73088830712204
H         1.40331877663358   -1.09052572663012    7.72278027168434
C         0.51255391252923    3.10223078866305    9.36334651335927
H         0.32060654476799    3.86719880516799   10.14401047718609
H        -0.37932985507476    3.09678824521348    8.70763723914673
H         1.37391884259818    3.42929984142397    8.76765012188085
C         5.74055323395050    3.02992904484972    8.25149537965932
H         6.23354196511814    3.29029332416717    7.33321806335623
C         3.16360292683274    0.36538342290922   12.84717933043969
H         4.06309993588421    0.73267105543888   13.37623620089899
H         3.41262959005401   -0.58178945504479   12.36771982482269
H         2.39351174737452    0.17705809183595   13.61869758512302
C         1.72576587322568   -1.22249863273395    4.39646906221467
H         1.56710525874649   -0.31216697768676    3.81891795761510
H         1.58411959198309   -2.07334092533794    3.73351267523392
C         6.18686558432911    3.26469924474625    9.54571333273527
H         7.10037637561737    3.74747525579532    9.83805499543572
C         3.12955933843728   -1.22538358995271    5.03189696350525
H         3.68706891978556   -2.13963974863862    4.80912785328531
H         3.72542529784832   -0.37022566043278    4.68709401960485
C         2.43541256903878    2.58697611508424   12.49280106353453
H         1.60006473447519    2.51516570949163   13.21378517780512
H         2.18453093391507    3.33496402524145   11.73357142387055
H         3.31065225155255    2.95248486560111   13.06143555027724
C         0.78569867339695   -1.27268875422822    5.60527523060229
H         0.51649409439545   -2.30394168584180    5.83382747623141
H        -0.12385248501992   -0.69527629543916    5.45804669974510
C        -0.30620953960224    1.42239142741637   10.82701640651823
H        -0.56394907759511    2.23858978396997   11.52890435029624
H         0.00042297618858    0.54867267136482   11.40975397843630
H        -1.22927718217904    1.17404940056375   10.27125719080897

