47
CSD_code = DIJDAD | q = 0 | S = 0 | Stoichiometry = C20H20I2N4Pt | MND = 6
Pt       -2.00785398809570  -13.14380631737603   -7.89643141176318
I        -3.05634277911356  -10.91965091268290   -6.86394043305107
I        -0.76443026984771  -15.21819888056502   -9.00392945601165
N        -1.08620769271239  -11.82966767540294   -9.48848354418676
N        -0.04433700098113  -12.47452149263136   -7.02548051778240
N         1.52065761753807  -13.60322831999711   -1.85106120324343
N         1.29893092817763  -12.83892035169085   -0.87394081507349
C        -1.55660203702978  -11.52304811359962  -10.68456446250683
H        -2.48063176917727  -12.00199322713770  -10.98029673641240
C        -0.92508659258427  -10.63240345117008  -11.53799963728613
H        -1.35250840160335  -10.41466608071358  -12.50312061792682
C         0.25551407070372  -10.03357027980386  -11.12116238907632
H         0.77452377908370   -9.33357273348904  -11.75804715415014
C         0.75237224705717  -10.34886278539162   -9.87248556181271
H         1.66535271551660   -9.90691571735169   -9.50447167663622
C         0.05444172373223  -11.25669357786850   -9.07052402694056
C         0.54378527945500  -11.59997758552688   -7.75707612179561
H         1.45238540316576  -11.09856342948143   -7.42122707460684
C         0.37077294939033  -12.73178443747886   -5.73641736427386
C         0.71076896158137  -11.68758060883668   -4.86366696144028
H         0.64069081627119  -10.66582825397315   -5.20977296163229
C         1.03911609054250  -11.95648960735289   -3.56060810266718
H         1.28273054885373  -11.16487641338791   -2.86797502432345
C         1.07272833236844  -13.28321275467025   -3.09424176673247
C         0.76856765124494  -14.32813631950909   -3.98189424979603
H         0.79785705457248  -15.34409182187807   -3.62116455243620
C         0.39674795575252  -14.05511134447101   -5.27287054171524
H         0.15991627818368  -14.85821342190042   -5.95403704419574
C         1.92601978151112  -13.12768379974168    0.32049219286046
C         1.51909152895773  -12.37339606625951    1.42624749815535
H         0.74130405397599  -11.63752654521945    1.29242147055416
C         2.10533670346019  -12.58626289755234    2.65712838742466
H         1.78938987617042  -12.00753382790194    3.51226036693004
C         3.10135392968884  -13.54182618648572    2.79730488770562
H         3.55884377538546  -13.70537130682449    3.76172539903024
C         3.51503581131045  -14.28891913973220    1.70201694328758
H         4.29264291904566  -15.02959580802359    1.81887354730943
C         2.93611718005522  -14.08813717313204    0.46776611326621
H         3.24230264037643  -14.65613087785535   -0.39813840647565
C        -2.74469636230658  -14.23039701699036   -6.29476493102930
H        -3.81098378349507  -14.05537704578820   -6.14637532977228
H        -2.21052485435481  -13.88557206845409   -5.40486129652274
H        -2.58009386991075  -15.30092672583772   -6.41943072034185
C        -3.75414703951364  -13.67757423977008   -8.87283224239543
H        -4.57103578408748  -12.99669106103190   -8.63315118779889
H        -4.05990001255508  -14.69528641138562   -8.62658494838826
H        -3.55321636575275  -13.63400588667679   -9.94670633432773

