50
CSD_code = DIJDEH | q = 0 | S = 0 | Stoichiometry = C21H23IN4Pt | MND = 6
Pt        3.73138214923403    2.37124592442440    3.71452484158000
I         1.57247378313779    2.97348679196516    2.15877009492868
N         4.69865141396057    1.59303562286727    1.86257112688677
N         3.08647342485186    0.25264848951552    3.62462201640649
N         0.11075760562235   -2.31086031362145    7.51884348390323
N        -1.14790023855076   -2.24297714794342    7.58542969008544
C         5.41678966866040    2.24277795012697    0.96124394046521
H         5.60415177519707    3.28989678202184    1.15789794654963
C         5.91340961263530    1.64257529190657   -0.18379959052777
H         6.48828889127467    2.21926321211114   -0.89013444756234
C         5.65221616818123    0.29519605829400   -0.39884016372419
H         6.02131215112656   -0.20456792351919   -1.28151542821520
C         4.90693047158459   -0.39046000562112    0.53801461908128
H         4.67421112434234   -1.43662515307607    0.41175133861170
C         4.43700592210912    0.28952960446294    1.66694433772185
C         3.61963001879923   -0.38316810745650    2.64452057875619
H         3.41869122999224   -1.44333839221065    2.48114899411487
C         2.31698916447741   -0.41091472821468    4.56097489499254
C         2.74913990793271   -1.62121770591558    5.12248850460698
H         3.70270486196522   -2.03351984386306    4.82181820368055
C         2.00194179460040   -2.24472891338531    6.09013186075642
H         2.33602220840946   -3.16943788841143    6.53466675704249
C         0.76838379755508   -1.70751858002409    6.48880071645841
C         0.33484051922715   -0.49730052731405    5.91849861528449
H        -0.60762885941748   -0.08538305506303    6.24628746691783
C         1.10415013796744    0.14809850365483    4.98463235502916
H         0.76019568076417    1.06587388810976    4.53284070161393
C        -1.75268463189476   -2.69394597793010    8.73885824583561
C        -1.08117942874530   -2.86284723066226    9.95719736123759
H        -0.02094865849488   -2.66099876759990    9.99653199198308
C        -1.77945246053218   -3.26533201237424   11.07517886974802
H        -1.26388042920575   -3.39155290260404   12.01598114394497
C        -3.14408669257898   -3.50777389568359   10.99682119138727
H        -3.68545487775275   -3.82372488362847   11.87615241390414
C        -3.81546410680704   -3.33985270843179    9.79437424831873
H        -4.87754843107067   -3.52823982911293    9.73974600700660
C        -3.13054071919651   -2.92709402897354    8.67029897663347
H        -3.63197502859627   -2.79054736846208    7.72467200868162
C         5.40408001343138    1.83569753392068    4.80978483359671
H         5.23812416961678    0.85087686433802    5.25220407695962
H         5.65939167337560    2.52260144681396    5.61329075299881
H         6.26224908697851    1.76893947286029    4.13693661000217
C         2.85522454319327    2.89636962340246    5.50697278884736
H         3.46597489244457    3.56026452582684    6.11958315380542
H         2.67425931408668    1.98045506829827    6.07747923451340
H         1.89925809410022    3.39067790926366    5.32288515226824
C         4.42608287799868    4.30761762557665    3.59357827993242
H         5.44176993870447    4.42283202449176    3.97443218576940
H         3.77630047830810    5.00682299204722    4.12252432337850
H         4.41138599699340    4.58164468481119    2.53478269379549

