33
CSD_code = DIJDOR | q = 0 | S = 0 | Stoichiometry = C12H16N2O2Pt | MND = 6
Pt        4.33795822648402    5.98490459386456   -6.64785506862894
O         6.19441674764122    6.80776072321194   -6.32959677824012
H         6.23189360011592    7.22460150669144   -5.46671145821141
O         2.54957234444543    5.10556380298915   -7.14054673325744
H         1.91759281065747    5.20951726682152   -6.42666412832749
C         5.73517129655449    3.20552920419572   -7.08540524180541
H         5.48277543775814    3.08946172753376   -6.04139682510460
C         6.41820469291072    2.20645501271225   -7.75981690710384
H         6.70741133447528    1.30139602199072   -7.25012978100273
C         6.71463311643353    2.40691293656483   -9.09797570995314
H         7.24567318357828    1.65833735177002   -9.66707535788231
C         6.31653347574298    3.58720440214138   -9.69763735578377
H         6.54141931182696    3.75021775275769  -10.73852861667499
C         5.63076618318979    4.54746037682047   -8.94931537999476
C         5.17518622171326    5.82186054484605   -9.53036787967297
C         5.41076363453139    6.16151868983562  -10.86508383605749
H         5.94705608479319    5.49634045812960  -11.52123523421949
C         4.95187924652756    7.36956529754992  -11.35624595280272
H         5.12891403721473    7.64206861492558  -12.38611928139151
C         4.26342517328475    8.21682935217075  -10.50363834662762
H         3.88506041180056    9.16798599128497  -10.84237085657660
C         4.07169157582070    7.81022096967328   -9.19312685705260
H         3.53977575908086    8.44055997474854   -8.49530162710732
C         4.31062741473160    5.14531856343022   -4.77429432484006
H         3.86566480895723    5.75258431438732   -3.98634496752883
H         5.34179050255485    4.92792317742339   -4.48516521582603
H         3.75018714635222    4.20878564475087   -4.82927293856403
C         3.39266792988634    7.65968359613283   -5.92807504328025
H         3.15959372809972    7.65521781571532   -4.86352184681667
H         2.45356998925385    7.78153180031333   -6.47346557619406
H         4.03387926417770    8.52240429201805   -6.12506493750604
N         5.35668711172788    4.33356726469706   -7.65861584209123
N         4.51215819767751    6.65681095790161   -8.72403409387365

