69
CSD_code = DIJFAD | q = 0 | S = 0 | Stoichiometry = C19H38MoO5P2Si4 | MND = 6
Mo        5.51848123514470    2.93507205916688    6.70772821704405
C         5.96774370736548    1.26772419871110    5.76256946527767
O         6.14999820223121    0.22804142570105    5.32181696715067
C         4.66604400613032    1.80770600135796    8.04714181127421
O         4.16069660122307    1.15351062649937    8.83696464630105
C         7.19241577145895    2.82570412510565    7.74074965132576
O         8.11132994205765    2.72236392039552    8.41044861211785
C         5.00045270016548    4.49889502224698    7.77947579605911
O         4.67657926139026    5.35023628352548    8.46984835788530
C         3.80823765819285    3.00147391719642    5.74165756739879
O         2.79151305858762    3.00080487462769    5.21974612417706
P         6.53574035778044    4.49747098313527    5.09082677776924
C         7.05978266700177    6.13006514777596    5.72991679129410
H         6.95336078005793    6.02982599058736    6.81697814163934
P         6.54827797917985    4.57936771091756    3.06566742801436
C         6.02662716016209    2.83370438155055    2.72450078926808
H         5.70048924790271    2.40715776397773    3.68283223533509
Si        5.81783949545541    7.50794260633309    5.21061430279697
C         6.28393709597468    8.24709882091250    3.51860230071754
H         7.19457952262570    8.83355583629923    3.57976587438713
H         5.49647179828589    8.90262937930239    3.16077411274042
H         6.43310078848905    7.46975751248050    2.77540459153489
C         4.06662466585709    6.75739640665838    5.11767962605296
H         4.04484699349227    5.91429506262689    4.43027157016102
H         3.33609620491734    7.48209113238742    4.77126164014694
H         3.73402485854898    6.39898392246288    6.08881391151577
C         5.83081389954458    8.85121864235984    6.56298743803891
H         6.80651157042078    9.31232077232368    6.66538776887166
H         5.55499990634932    8.44333140560041    7.53037148632489
H         5.12019611629445    9.63563453548365    6.32510194533606
Si        8.94943709372384    6.37226671987336    5.45043410616157
C         9.47693290205933    6.39834155277981    3.62056940291871
H         9.08118664424135    7.26146390637556    3.09745871087514
H         9.13603123029915    5.51119248502952    3.09414927106009
H        10.55939048215325    6.43429678803658    3.54280238804397
C         9.78869341596225    4.89713712391296    6.32393547583591
H         9.66471694828980    4.94915084445957    7.40213697775075
H        10.85453857852182    4.85642631688863    6.12112460947266
H         9.35426907587602    3.95620016933224    5.99101300148952
C         9.48948958669306    8.00361774568064    6.27438213102487
H         9.10997237359840    8.86640805098612    5.73792892308996
H        10.57151461343603    8.07724266811573    6.28764190217210
H         9.14439624388958    8.07123522504090    7.30056303561067
Si        7.60918125794105    1.86442990370985    2.20336965047861
C         8.85616130760013    1.98974818441763    3.64649787523611
H         8.35894779664199    1.88383872751207    4.60968768871943
H         9.36156555449081    2.95192218733792    3.64403246274782
H         9.61758310505112    1.21843317293556    3.58653802135408
C         7.18106315360418    0.03904277482597    1.87559361904836
H         6.50593148811685   -0.06916263113934    1.03337369894369
H         6.71325907466958   -0.42010584559155    2.74019173677944
H         8.07968862683367   -0.52605609861679    1.65063534936007
C         8.41348736879015    2.67470974048281    0.67554863415093
H         7.94415049323596    2.35314938488700   -0.24685948428266
H         9.46555610406688    2.41487132034950    0.61328682294616
H         8.34220343793226    3.75746200093418    0.72355687604527
Si        4.48413232689478    2.75769974132029    1.57435388812983
C         4.97849150173596    2.78475511777844   -0.26447425659659
H         5.61517287072655    3.63265414397107   -0.49296742789464
H         4.09549846164673    2.85709095743265   -0.89115437412239
H         5.50856457613469    1.88270186779982   -0.54956491639519
C         3.53640797703167    1.16124864766021    2.00499214960942
H         3.20973862201403    1.16792467530756    3.04095589595173
H         4.14750178804185    0.27672402828014    1.86107740344854
H         2.65170632431819    1.05492826680626    1.38544232554579
C         3.37041994208898    4.26676110619743    1.92361988297476
H         3.91323935983486    5.19831829483012    1.78389671507626
H         2.99683210968624    4.25046653545722    2.94326500134903
H         2.50843292979277    4.28428373089707    1.26375887798005

