79
CSD_code = DIJKEM | q = 0 | S = 0 | Stoichiometry = C37H37MoO3P | MND = 11
Mo       -0.13125984184891    1.22517980115197    4.54667976158752
P        -0.61665249083794    1.56167455915907    6.81611556419141
O        -1.54883262660705    0.58841673201309    7.72814252768067
O         0.62910473826009    1.84402527159374    7.82894299595500
O        -1.41289938619509    2.92139085980981    7.03364775797752
C         0.15388991659275    2.98542406601493    3.04663125909883
C         0.42635844749973    3.39152239441187    4.37283899169029
C         1.57897092200243    2.67149129666997    4.80925461831449
C         1.98415320959639    1.82224760941088    3.74448163682222
C         1.10045113778538    2.01179408207207    2.66807640536939
C        -1.02972266373729   -0.63557207771188    8.21996354786471
C         1.83974858307137    1.11646950834608    7.79178013523151
C        -1.70049440647661    3.45028058675937    8.32806823832415
C        -1.91037933751664    0.68180222041713    2.36819143238273
C        -2.23169393582566    1.68338789181167    3.45842169454019
C        -2.41561152898522    0.98254164078974    4.65703870038150
C        -1.76141178084265   -0.28561676864164    4.55025026073369
C        -1.09798577484057   -0.27121674077804    3.24954170545856
C        -3.10585138970711    0.00552580417555    1.73985025050241
C        -2.96298451014764   -0.57443430570275    0.48333928152970
C        -4.00816849811013   -1.26638174194912   -0.09945064486435
C        -5.21602131930550   -1.38735338207039    0.56601637983298
C        -5.36910127218595   -0.81034895173111    1.81473544715442
C        -4.32194518970180   -0.12045618724842    2.39893664743061
C        -2.86254300981894    2.96825581291044    3.18499544307528
C        -3.06473389110565    3.89598726873284    4.21087765978377
C        -3.66176447871224    5.11345892132591    3.95288582024172
C        -4.07391127359764    5.43454654767635    2.66911527669845
C        -3.88179179100729    4.52365915755628    1.64390550817146
C        -3.27951160575103    3.30563981683557    1.89422172195706
C        -2.09145456721212   -1.47580352079910    5.33341572338562
C        -3.35871334971596   -1.60978130574259    5.90381005408889
C        -3.70684994427357   -2.75644169598430    6.59379433454945
C        -2.80352936429723   -3.79798013528634    6.71989451448172
C        -1.54397971320159   -3.67996230156986    6.15356022874403
C        -1.18957660578382   -2.53424997963198    5.46890081502077
C        -0.60965214085925   -1.51887321481052    2.62321117889644
C         0.71058146879781   -1.64714847589227    2.20911364184539
C         1.14849593855064   -2.80249975742476    1.58685598039978
C         0.26950465368538   -3.84815482506016    1.36416034126970
C        -1.04780219755694   -3.73375053760014    1.77551151451115
C        -1.48578358669421   -2.58112816681906    2.39970497609202
H        -0.54064033120822    3.46886427528532    2.37554996407344
H         0.00339006299536    4.25421158603263    4.86537741321672
H         2.19090735316545    2.93445683195780    5.66515821567563
H         2.89087878852188    1.23117795385907    3.72356663293933
H         1.21436267482604    1.59131783783045    1.67846107817638
H        -0.32455965481752   -1.07607974284946    7.51318127512690
H        -1.87273808799797   -1.31329394676034    8.35567308844115
H        -0.53474386271663   -0.47009485817878    9.18014688979545
H         1.95147981121578    0.59909935204102    6.83532741223766
H         1.86102018106430    0.38655678793960    8.60409051486569
H         2.65964871114724    1.82474164892487    7.92970882275517
H        -0.77831154538777    3.71720454918758    8.84339978414445
H        -2.25368422377787    2.72471296127400    8.92372714164513
H        -2.30804594773570    4.34049225395018    8.16712727866398
H        -2.01950966001610   -0.48808283516732   -0.03818538124382
H        -3.87885206189519   -1.71337651535081   -1.07451059185089
H        -6.03439968270954   -1.92762762067942    0.11310375196205
H        -6.31000451980615   -0.89854737479377    2.33885498884884
H        -4.45589619716526    0.32598921555224    3.37321265562370
H        -2.72847772811569    3.66203689738635    5.20946912666343
H        -3.80554386418374    5.82086840034021    4.75742771264768
H        -4.53972091913890    6.38825369292630    2.46923944239655
H        -4.20207279742938    4.76406911269705    0.64017307210291
H        -3.14656461372079    2.60152825986221    1.08572944393372
H        -4.08162692766816   -0.81395804079753    5.79699034802954
H        -4.69299870725387   -2.84107602486506    7.02829375040665
H        -3.07970991175504   -4.69606451289770    7.25265892854139
H        -0.83358503544914   -4.48858137610148    6.24642937211716
H        -0.20125975753811   -2.43902671726207    5.04505042796154
H         1.40034825948017   -0.83790200406879    2.39779973256087
H         2.17982813723415   -2.88761621208347    1.27470129126195
H         0.61013535971337   -4.74981762164193    0.87595145519055
H        -1.73939900717800   -4.54714476365067    1.60930739898440
H        -2.51358996594019   -2.50238782659631    2.72316100066343
H         0.68127388932550   -0.02662190140064    5.06093837654401
H        -1.29266770768365    1.09491692680310    1.56271790388350
H        -3.04731605383050    1.29003357368420    5.48086095287272

