58
CSD_code = DIJMOB | q = 1 | S = 0 | Stoichiometry = C16H37BrNNiP2(1+) | MND = 4
Ni        2.17164102630247    5.60912214606221   14.64563062041806
Br        2.12353795503043    5.45502147221399   16.84185774564231
P         1.70918753141639    3.50162789638185   14.42244108601222
P         2.62734608959685    7.73939684173483   14.67443878010056
N         2.24533915661477    5.70991067058572   12.62894726088182
H         3.24321773008289    5.52493694221776   12.47752283825614
C         1.77440506685953    3.29899084036946   12.57554033906905
H         2.78150659505011    2.95935889138652   12.31705579073379
H         1.06695948549229    2.54467629850457   12.23114080140472
C         1.49232339755188    4.65476401916502   11.93578542937902
H         1.75072969481332    4.63500462265026   10.86805100056937
H         0.42858352962392    4.89559347819489   12.01623599324148
C         1.96100151044502    7.04986329201084   12.09644010889258
H         0.89037899325463    7.23903820837251   12.22277021200962
H         2.18496222927779    7.09346560708069   11.02155184769465
C         2.77364095879688    8.09765795232735   12.85193461757877
H         2.42480671088080    9.10391815476916   12.61737405729715
H         3.82684415218352    8.02514384664600   12.56919535602706
C        -0.03250373964005    3.17656273551123   14.96855379114028
H         0.04596439340523    3.09944102873598   16.06077374487932
C        -0.88906352891432    4.40169674407416   14.64274482044357
H        -1.80445834692531    4.39148709688361   15.22908277648345
H        -1.16593637959137    4.42278552742748   13.59023678975161
H        -0.34499921152980    5.32634778167676   14.88744585135315
C        -0.62861912292509    1.89301294080600   14.40466014357349
H        -1.57128801855628    1.68403017133900   14.90569857012825
H         0.03055356837862    1.04157325071942   14.55878122446096
H        -0.83603896211675    1.98474978980507   13.34026545957898
C         2.76653885132106    2.11008753478530   15.04080875955962
H         2.60959439588742    1.27354179029268   14.34702594026609
C         2.40999421553113    1.68480340503266   16.46083664733991
H         3.12385846443475    0.93646270002971   16.79814413924523
H         1.41780803463531    1.24534022070695   16.51521870386253
H         2.46085121041742    2.52946513265760   17.14493802724624
C         4.22299106826539    2.56980503655050   14.97166521771286
H         4.88916558948087    1.75473589508678   15.24278688422222
H         4.38620223056363    3.38524215373784   15.67702362095698
H         4.49672065379715    2.90543417678690   13.97075083770847
C         1.53073419460156    9.08534725713098   15.32237422543358
H         1.89325644884123   10.01842665557637   14.87152170716246
C         1.59528395197501    9.18499370728411   16.84266049378421
H         0.90468423526394    9.95371542461129   17.18233926568911
H         2.59010532463652    9.45454343320201   17.18726424071246
H         1.30995018478015    8.24453500407972   17.30910379097921
C         0.10136445883475    8.81404807899967   14.85769952452218
H        -0.56556164863418    9.58814291853107   15.22942877682749
H        -0.24503691196057    7.85755679530214   15.25102928063027
H         0.02590512600066    8.80155290922989   13.77116905583959
C         4.31495908378008    8.02963354458348   15.38042392308843
H         4.18673093393708    7.92815131022407   16.46550247801046
C         5.22474016372908    6.89381872580368   14.90793870470129
H         6.14165461420552    6.87468075846086   15.49138866048261
H         5.49917588236831    7.00995456975519   13.86013900078757
H         4.72442132810646    5.92407903404233   15.04180228620123
C         4.88796272325486    9.40355790929100   15.05698967561334
H         5.87093741748869    9.49957900144342   15.51329950176357
H         4.25919214798374   10.19903238937148   15.44879416538969
H         5.00269316161951    9.54845427975862   13.98447540725476

