67
CSD_code = DIJMUH | q = 0 | S = 0 | Stoichiometry = C22H41NNiP2 | MND = 4
Ni        2.36236264303440    8.84898100816717   10.84613051457283
P         4.09631973945423    8.16675174028374   11.87319127692636
P         0.84473334348749    9.75922559827788    9.65515320336219
N         3.55985714282465    9.32215084149218    9.41590160599616
C         5.36371730460714    8.10655129197149   10.53847175068428
H         6.38357321004533    8.20839857190510   10.91463500348202
H         5.26585657994267    7.13035073397909   10.05824333137983
C         4.99479216969036    9.20028208631818    9.53882229329042
H         5.46335393990128   10.15822931086676    9.84746162400880
H         5.42954512169498    8.95565970929052    8.54953528396294
C         3.23527426766268   10.41646290511398    8.52869660082945
H         3.82887685698984   10.31960478804058    7.60027086288551
H         3.50810521362925   11.40257661566749    8.96159190770193
C         1.74702976869096   10.39512040473951    8.17317488036132
H         1.58852727157924    9.68829624818752    7.35773097329266
H         1.38429380458829   11.37821553929643    7.86453618362837
C         4.34364331699135    6.51778752637373   12.70327752232415
H         5.42364736296290    6.32727681275100   12.75773035563286
C         3.68541724091825    5.44932105191252   11.83412964599367
H         3.85229821626284    4.45784371462738   12.25250094452239
H         4.07774768024595    5.46188770758280   10.81935431533133
H         2.61387269776214    5.63186732761135   11.78903252943497
C         3.73709931246955    6.48724038282049   14.10263807687312
H         3.75812761378076    5.47077900445993   14.49395330401292
H         2.70049068671818    6.81789552492257   14.06796979038362
H         4.28402938419164    7.12383806199482   14.79379081561989
C         4.71169455178500    9.40003503938456   13.12860231888807
H         4.04240842027319    9.25828105578393   13.98656658712162
C         4.48078699444944   10.80694562415316   12.57793068589459
H         4.44979100845248   11.54379999664271   13.37972019364655
H         3.53082415489330   10.83766488595292   12.03105897179610
H         5.27451962755651   11.08686885258986   11.88874904429283
C         6.15315820499201    9.20585088814895   13.58308957545601
H         6.38197289537445    9.90644884988127   14.38554240494235
H         6.84793215428368    9.39676889380444   12.76799451034049
H         6.32337097730562    8.19773322524296   13.95416035544089
C        -0.32522511602720    8.50135530822260    8.94346234597663
H        -0.92519226913499    8.15959245055225    9.79565393392896
C         0.53116304527283    7.33074893486033    8.45762632285938
H        -0.05224361536497    6.41277875341095    8.40057957331335
H         1.37125136229766    7.18094717557199    9.14857963945683
H         0.94498340862385    7.53184218862513    7.47138118647544
C        -1.25197747003986    9.02079994199258    7.85058778709647
H        -1.84955218515256    8.19997816370510    7.45552118719972
H        -0.68586026943095    9.45171422453034    7.02715666921584
H        -1.93190379289252    9.77815065115194    8.23328232336485
C        -0.23891603602952   11.19273664538079   10.13408189164311
H        -0.69376126942496   11.59285490207861    9.21884490516604
C         0.65989846999877   12.25546506411559   10.75958853051746
H         0.08840298182871   13.14584686037101   11.01841164533649
H         1.45729626504186   12.54389034358591   10.07625310878215
H         1.11353358073165   11.85932975802393   11.66710586693914
C        -1.32666948856965   10.76631890368840   11.11303725247085
H        -1.86787100900278   11.63951178813522   11.47533301707210
H        -0.88396395834837   10.25527774518708   11.96610683845841
H        -2.04172256939362   10.09403986021380   10.64520201219486
C         1.13914703835867    8.28002453974179   12.21412324661728
C         0.35938808983186    7.12002802753301   12.15069137805069
H         0.41076566151065    6.47332838256396   11.28246913238847
C        -0.49547355944781    6.76039264323031   13.18089454673330
H        -1.08099386984551    5.85426677415326   13.09711516271479
C        -0.60426475489533    7.55002385977443   14.31107638672900
H        -1.27018735097211    7.26825023711376   15.11444519372151
C         0.15071528122927    8.70620640396557   14.39961555648072
H         0.07568570426379    9.33557518500263   15.27678864594102
C         1.00572602813037    9.06209844400377   13.36958968100754
H         1.58277078732379    9.97573401927255   13.47505578783268

