68
CSD_code = DIJNES | q = 1 | S = 0 | Stoichiometry = C22H42NNiP2(1+) | MND = 4
Ni        2.23173734020449   10.01026623454604    3.04367357749274
P         2.19695104956077   10.07570507855602    0.86607465021758
P         2.37591207031302    9.72905932873781    5.20237191655557
N         3.22067910279285    8.19380754215310    2.86471464078452
H         2.43770643618639    7.53481544707763    2.93373089827524
C         2.94031592133740    8.42431050893943    0.43747418088123
H         2.11978446073522    7.71104614923805    0.32670698376934
H         3.47615090319913    8.46669333036051   -0.51120911254562
C         3.86705316531528    7.97589828333602    1.56589616423872
H         4.14007432888246    6.91906469931200    1.43383810860512
H         4.78941493473572    8.56165648246632    1.55121137273715
C         4.11512979120303    7.93870059915068    3.99919455096689
H         4.95273212551070    8.63969949049795    3.92847997475960
H         4.52459992960433    6.91896990351357    3.95770140687142
C         3.36099214498618    8.15004655401484    5.31019525513310
H         4.05217308534933    8.17776400608035    6.15363765407955
H         2.66513581240078    7.32265236008852    5.46654926045955
C         3.32782065230397   11.33228994298189    0.09751474101871
H         2.83990212685485   12.29235066440639    0.30661215625473
C         3.52718634715798   11.19123224720261   -1.40660044990593
H         4.15318909733942   12.00713501451522   -1.76237150998940
H         2.58441954249771   11.23351451980273   -1.94525195874727
H         4.02870603403272   10.25953147040250   -1.65898672432780
C         4.66330915301721   11.29828728541042    0.84322920456886
H         5.20498180379381   12.23106366186021    0.70359033916172
H         5.29230232282767   10.49163982808348    0.47248648923889
H         4.49840876460996   11.15142119913163    1.91605990974202
C         0.64506679426602   10.09423713254174   -0.14717464195469
H         0.88577141250510    9.71257597024605   -1.14642829717147
C         0.08663321693921   11.51119517794558   -0.24587150672257
H        -0.87436880117010   11.49295878834845   -0.75544181650908
H         0.74802802356287   12.16803741110471   -0.80420056472438
H        -0.06140148591975   11.93059977732119    0.74792259814676
C        -0.37521696093920    9.17361740337127    0.52015848881270
H        -1.32253052342893    9.21260585491558   -0.01224979703668
H        -0.54718768040199    9.49826209934507    1.54634604485886
H        -0.04385478733948    8.13698601023157    0.53120655004367
C         3.25437554452315   10.85394627044325    6.38200617393764
H         3.42922022689173   10.29612244592289    7.30981556509426
C         4.59430298606019   11.23807427127727    5.75829082140228
H         5.11057488625667   11.96059162368655    6.38596712204238
H         4.43132384425291   11.69083307614376    4.78012196291085
H         5.24266965694761   10.37150291205784    5.64169084590714
C         2.41628573847636   12.09420119018393    6.67469799018286
H         2.97655235732102   12.77463666678377    7.31231048934292
H         1.49197455067780   11.83935876707881    7.18703295496827
H         2.16887049376388   12.61487149670730    5.75164317715398
C         0.76188853897237    9.29434902746561    6.00782669626001
H         0.19822272071565   10.23475757243244    6.02720156365862
C         0.88637043220369    8.75366087691867    7.42686816835664
H        -0.10208029216492    8.50108039108357    7.80557638935094
H         1.32123746788014    9.49108903072956    8.09620179849623
H         1.49645122586943    7.85354756206718    7.46033350910164
C         0.02754630087701    8.31773119897592    5.08626590458962
H        -1.03316378256096    8.28885988438839    5.32411610805489
H         0.41580882637301    7.30633700380306    5.19198090776034
H         0.13780615105470    8.62792401683986    4.04036711051469
C         1.35763459752675   11.67568732076097    3.21305433117603
C         2.08740552420327   12.85474263538345    3.07830581258773
H         3.15154369002002   12.83465189676208    2.87865790470593
C         1.46023334117674   14.08588204485871    3.20398414414785
H         2.04115165658070   14.98969261041108    3.09801899361076
C         0.10347327213819   14.15604508942446    3.46375291443791
H        -0.38180897642475   15.11463550640419    3.55976969906329
C        -0.62674214246714   12.98963595112418    3.60105099878016
H        -1.68609377619351   13.03227860019252    3.80463448648680
C        -0.00708231698333   11.75404348213326    3.47871696909791
H        -0.60946039869126   10.86183212037310    3.59254774872397

