61
CSD_code = DIJPIY | q = 1 | S = 0 | Stoichiometry = C17H40NNiP2(1+) | MND = 4
Ni        3.34175027750674    3.14700811609759   14.04085653874842
P         4.15454836663852    3.59572550442687   16.01236738763652
P         2.81127508405312    2.59907941984864   11.98725010793795
N         5.31022282720052    3.13197497331575   13.38018411749829
H         5.38864585996042    4.12130792359327   13.11782606396444
C         5.97542832806170    3.73570290494987   15.65361579696113
H         6.19899353726976    4.78171765829415   15.43011306458121
H         6.57335596533660    3.43405814326852   16.51462510470310
C         6.29728626228307    2.87690360844495   14.43435363242548
H         7.31632291418609    3.08599901833147   14.07814654163141
H         6.24213926412792    1.81522985842184   14.69211243004231
C         5.55676207104663    2.33838753789255   12.17171982880121
H         5.55087107285473    1.28338439705979   12.45757508707200
H         6.54592152751081    2.56519363173703   11.74844332588654
C         4.46595525275686    2.61329914830204   11.14219825889248
H         4.50077762305070    1.88974786445924   10.32750822084071
H         4.60422332372337    3.60902039430301   10.71221435426865
C         4.11804566494943    2.50355678564988   17.51168769970941
H         4.80497640339623    2.94648124609212   18.24288357300452
C         2.71718025825346    2.42395505554533   18.10848862143373
H         2.33713456085231    3.40725439004703   18.37569120327630
H         2.73780131983031    1.81740876183363   19.01141669226632
H         2.03130052251596    1.95791960184105   17.40439315091104
C         4.61121880717525    1.11002110332032   17.13022771423474
H         5.65817590437852    1.12007762899542   16.83529812765380
H         4.01472486676363    0.71186488601887   16.30928517669197
H         4.51131340700187    0.43524835594991   17.97735117330058
C         3.68502692219961    5.29343153831529   16.59764364458270
H         2.65143530611760    5.20511969169520   16.95115025423783
C         4.54980354914026    5.83778069008200   17.72774699692238
H         4.46880281951068    5.22339792016595   18.62073087224076
H         4.21769665130228    6.84186461192503   17.98376629828420
H         5.59690150114252    5.89673429056520   17.43961111617032
C         3.68287973286789    6.21294858836362   15.37535283477215
H         3.19235408884549    5.71176369132582   14.53078342410651
H         4.69536724093770    6.48581882102287   15.08351125424370
H         3.14101062023353    7.13126880196156   15.58695045671261
C         2.22220582290892    0.83667384151677   11.91928095454137
H         1.16475112625629    0.90107585716262   12.20278305522139
C         2.32945873590421    0.16855815914277   10.55423111677157
H         1.87299429505641    0.77288660064035    9.77386878524047
H         1.81635315247601   -0.79055207690097   10.58044207934793
H         3.36598399236008   -0.02270756127417   10.28558451410082
C         2.95214776771276    0.04194477968009   13.00375668156973
H         3.06281936107305    0.65426229406854   13.91005184244910
H         3.93886026151438   -0.26599481085601   12.66499595982649
H         2.39588369613953   -0.85544840005678   13.26405315726706
C         1.78018489403503    3.54214189231704   10.76302673575495
H         2.12059764599675    3.25252331877981    9.76135128878626
C         2.03986738310836    5.03358797724522   10.97213756366623
H         3.09059493763785    5.28403118976030   10.83642294722967
H         1.74234634269027    5.33100796651663   11.97710533376391
H         1.46434429189834    5.61994243064501   10.25985573786328
C         0.29252228980180    3.23676971136817   10.90452938994098
H         0.06640504784652    2.20696807342981   10.64175528698399
H        -0.27579642739046    3.88215677509247   10.23792708917229
H        -0.04651397483391    3.42113823366464   11.92145681277937
C         1.49052625501935    3.23721003321854   14.63509444824356
H         0.98406063301183    4.00491700709383   14.03991976539950
H         1.37107312291899    3.49420124647678   15.68888454450632
H         1.00689964187590    2.27104889779740   14.45560476293919

