91
CSD_code = DIJQIY | q = 0 | S = 0 | Stoichiometry = C42H46O2Zr | MND = 4
Zr        2.72754474906213   12.48558866938982   12.23455904765293
O         1.98120224661344   10.69810977931501   12.09792848618734
O         3.38411588791295   14.31291839886488   12.21100980147386
C         1.45376406205716   11.67676912356475    9.74985920638051
C         2.48356542844080   12.48762231542414    9.26605011917153
H         3.25943911811857   12.05115336363276    8.64738917791843
C         2.51325723333840   13.83389732453534    9.59803301748768
H         3.32417223183581   14.46457215195299    9.25007532633377
C         1.51413366678836   14.39075989571729   10.40821629916726
C         0.40371212306905   13.61559758623107   10.75210799161221
H        -0.42206399835359   14.07374976839070   11.28446923674912
C         0.37842902107396   12.26732288010526   10.42767909854324
H        -0.46686744468925   11.65197748379540   10.71614877595482
C         1.85897052221775    9.77524475607611   11.15143297825747
C         1.95510998742818    8.38279827106104   11.38572145585398
C         1.91306181860722    7.53777264906890   10.28767770740125
H         2.00766229269049    6.47372531327687   10.43356310325840
C         1.75317006974387    7.98145654583769    8.97887476712571
C         1.58181053940561    9.33707337595013    8.75842552744165
H         1.41005102315485    9.71973318382896    7.76214888861314
C         1.61431549029712   10.21161233999557    9.82654442412206
C         2.86098812594375   15.52071421932666   12.03797099443505
C         1.80251996298912   15.65833424608806   11.10712608379658
C         1.12183639412574   16.84782864505368   10.93824217654815
H         0.30745493009159   16.89893826673956   10.22926076203852
C         1.50140421309569   17.96235991975819   11.66580875003685
C         2.59253798160200   17.85491985237068   12.52209992490061
H         2.88887796948180   18.74805653123106   13.04831442248212
C         3.29758933864828   16.67872935601451   12.72455915756205
C         2.04015554521155    7.84655956846514   12.81137078772277
C         3.28044387135680    8.40093909344879   13.52453713604005
H         4.18657695251706    8.08384353025233   13.01078818913138
H         3.31962866567703    8.02596594594571   14.54595111372460
H         3.24260135637218    9.49082337007672   13.55370304831514
C         2.10165188436603    6.31718174385324   12.87213065566656
H         1.21809420697824    5.86879043075940   12.42414855076760
H         2.14482077711722    6.00334388891073   13.91337835294828
H         2.98925489836829    5.93779351995439   12.37105050227494
C         0.78158988686396    8.30576374168648   13.56115447803496
H         0.73646600521504    9.39151884197856   13.57155103485030
H         0.79895646026518    7.94694265387217   14.58841969814497
H        -0.11190114070934    7.92136033394242   13.07262482005644
C         1.73941465055445    6.99654826455657    7.84714986374991
H         1.65086146010702    7.50731978202238    6.89161701258482
H         0.90106173357567    6.30770737970761    7.94926402055912
H         2.65488832793042    6.40606282038740    7.84216047049687
C         4.53996075232704   16.62725707525818   13.60834667638959
C         5.72478906615393   16.20258974831450   12.72935886082045
H         5.53153934871843   15.22245235375097   12.30154068353608
H         6.63727414080548   16.15210809258177   13.32019040394196
H         5.87194339712946   16.91636102611615   11.92089362957321
C         4.35834063930052   15.60285013145301   14.73626657452809
H         3.52370429796018   15.88682449875979   15.37521364874104
H         5.25740790937808   15.56255832136096   15.34899095888204
H         4.17491018682945   14.61143173843999   14.31950635804097
C         4.87673464760733   17.97919380961038   14.24523540095296
H         5.07108705848027   18.73498770961405   13.48789449651208
H         5.77483597938789   17.87359796359492   14.85081662720549
H         4.07354896210923   18.32043462668311   14.89436564919970
C         0.78221827138930   19.27151443231468   11.52485677864246
H        -0.07236317100170   19.17326615307107   10.86018587970365
H         1.44862013159956   20.03290286714268   11.11990426646217
H         0.43004096756267   19.62109537026393   12.49464715283268
C         2.04165722408593   12.53661657117805   14.38041781451350
H         1.91527293298373   11.51929372393943   14.77116938918653
H         2.67023515108161   13.13330666888924   15.05053174348475
C         0.76491520923160   13.18355242094118   14.07441333882154
C         0.62196139846532   14.58545607129092   14.09980339664800
H         1.46739764846447   15.19763070985115   14.38569169782596
C        -0.58163712345635   15.19163228536080   13.79964750666565
H        -0.65566979976820   16.26950573842873   13.82657784434511
C        -1.69645967892096   14.42913661550596   13.47960544143265
H        -2.64032516593241   14.90497407255382   13.25912588135899
C        -1.58705755656657   13.04512113469756   13.46512999207308
H        -2.45486088621122   12.44123672258183   13.23716250182195
C        -0.38277726711948   12.43188034081489   13.74970722233775
H        -0.32277717765565   11.34913376437275   13.75801281283472
C         4.84620541973778   11.80166423019254   12.58390958600805
H         5.44672015652591   12.60961733115531   13.01989155835576
H         4.94496915953854   10.88394778905678   13.17390720089199
C         5.12740673639662   11.59616177208323   11.16242607706696
C         4.93418577072453   10.34450077919375   10.54396141995341
H         4.60333918294115    9.50529340259720   11.14190033939053
C         5.18959028477987   10.15896798743083    9.19989735308217
H         5.02910963287375    9.18616815512350    8.75729200756831
C         5.66385902300221   11.20443065542238    8.41967411906921
H         5.87575413729030   11.05323636408142    7.37175006311803
C         5.88017763743458   12.44299958646864    9.00862760166784
H         6.26846255315205   13.25878322929551    8.41408108118499
C         5.61334411558980   12.64039247624668   10.34917220513105
H         5.81217816904060   13.60773236056593   10.79720231463858

