78
CSD_code = DIJQOE | q = 0 | S = 0 | Stoichiometry = C32H40Cl2O3Zr | MND = 5
Zr        3.45148780350609    3.98210307991290    9.92002919091784
Cl        1.49761030452321    3.22427641003976   10.97785319168446
Cl        4.54144603973285    1.90306232371645    9.93661365790179
O         2.76984803767794    3.77499733802895    8.18101990741111
O         4.28359541812251    4.55142545889435   11.50930457244610
C         4.64866955572016    5.42724298122842    7.41921936516620
C         5.46305846934019    4.51633168312336    8.11056956699293
H         5.66585445377432    3.54089821491571    7.67348898288225
C         5.98388515365452    4.85288982528872    9.34955974006648
H         6.60551341513143    4.14635420184851    9.89591296276107
C         5.69778602290518    6.10540362094870    9.91759877412230
C         5.03236478486069    7.05897438584006    9.15245316423479
H         4.87298015475027    8.04909966612227    9.55793690224741
C         4.51022137268651    6.72135731563565    7.91184958416015
H         3.94180493872123    7.44702158293936    7.34568242783201
C         2.83981486234429    3.94610311430475    6.86531791828003
C         1.98963555898737    3.27162145395009    5.96372752298206
C         2.09194307684380    3.59574448303686    4.62010123827035
H         1.45603101184876    3.10111295217399    3.90378736003201
C         2.98551963238540    4.54261432681010    4.12759172483837
C         3.84097423747523    5.17586809556283    5.01351876399363
H         4.57009098206796    5.89211091298059    4.66205847151946
C         3.78107054790638    4.87319017534675    6.36096341837420
C         5.15952709883879    5.32650428490895   12.13606965100203
C         5.91509765396881    6.24546361935196   11.36986937989540
C         6.75748273991683    7.16107849676347   11.97445006425318
H         7.31494640391208    7.85424009575140   11.36041281504970
C         6.89897211657122    7.16394336101238   13.35169764511823
C         6.19977222717182    6.21954735610442   14.09831316837002
H         6.35226388352256    6.22561179410636   15.16546713574781
C         5.33461369851732    5.29438521915184   13.53644153116002
C         1.03031562335859    2.21153403974467    6.49020000883960
C         1.83489571218522    1.12583462888612    7.22198548467425
H         2.55822202175032    0.67129125601745    6.54743146601202
H         1.16415517624205    0.35038609711744    7.58573723209324
H         2.37119945612062    1.53925796809636    8.07921830840499
C         0.03589780324653    2.85483931353901    7.46881528746380
H         0.54769174521613    3.18309672063925    8.37285006071096
H        -0.72149790127970    2.12903031665221    7.75616212089638
H        -0.45865652775642    3.70793242526034    7.00569889696698
C         0.23260208278601    1.53990370644750    5.36789741586185
H        -0.39754288119000    2.25848641140010    4.84820019914523
H        -0.41253473881537    0.77564801848459    5.79583608481740
H         0.89314466041212    1.05739023276068    4.65140043567875
C         3.02478894208229    4.84135727406134    2.65798743711963
H         3.74640455220213    5.62469582447390    2.44070134772491
H         2.04521856473071    5.16275211457638    2.30613126522259
H         3.30303341013087    3.95023669242813    2.09633119978873
C         4.60108889300475    4.24050118226282   14.35648142436236
C         4.97575365911663    2.84671988732668   13.82840451514829
H         4.47745823933507    2.08087342697146   14.41875667366658
H         6.05124402567605    2.69296294227817   13.89679599219313
H         4.67162829465131    2.72301725234619   12.78735057779847
C         4.96712472515886    4.30158804536400   15.84284906530216
H         4.67163907860015    5.25167701125757   16.28272469859458
H         6.03436548341023    4.15403651287972   15.99065692658413
H         4.44294813727339    3.50936149645238   16.37293207010169
C         3.08412605077833    4.44465919665371   14.22585148613062
H         2.81198505547930    5.46574739407384   14.49075349267038
H         2.56139539957889    3.76300533398546   14.89302853205870
H         2.75517207507339    4.23738865434215   13.20785723120255
C         7.80924869192007    8.13812321288450   14.03932578573277
H         7.28249549928617    8.65747178258913   14.83855684184150
H         8.19101404150206    8.87452699930113   13.33673088181009
H         8.65624932083475    7.61638232050647   14.48427876652690
O         2.41861105792027    5.95352986417762    9.93435711010230
C         2.09566057282253    6.53503486672315   11.20580046544038
H         3.03050135917037    6.78656275097797   11.71283435896980
H         1.53247560718153    5.79933425259374   11.79853240895065
C         1.22678413320482    7.76407459306499   10.89249502790581
H         1.81535921093278    8.67917330529386   10.92809108400058
H         0.41443826155005    7.85330536355073   11.60966782133034
C         0.71089960549126    7.49570431363775    9.46913660347417
H        -0.37188126760258    7.55838232860105    9.39986695096542
H         1.14352472650791    8.20315803748765    8.76268383394565
C         1.20851132200446    6.07703624630579    9.17631668122707
H         0.48627794031650    5.32633546346088    9.53038315950903
H         1.44278144101817    5.90607509226662    8.12303548130948

