52
CSD_code = DIJROD | q = 0 | S = 0 | Stoichiometry = C18H26N2OS4W | MND = 7
W         3.14732463205592   12.00894874035659    0.45795242482340
S         1.49237568398628   13.43182052436767   -0.99023169485140
S         1.53527157235063   10.15295231110346   -0.15982976658917
S         3.82513317375447   11.00250245307627   -1.72467920876679
S         3.55380749589494   10.77349478796154    2.42953498220515
O         5.13528829130887   14.40281087508017    0.39934993133993
N         0.87261729318324   13.96308265954262    1.56971720267299
N         2.20254745021824    9.01551749237010   -2.46919036273359
C         4.38438423852448   13.52983285989428    0.38735394257586
C         1.60374566352452   13.34547137425364    0.67699302785197
C         1.15058579812065   13.70934602341839    2.97318075857838
C         0.36738464448777   12.49955429022593    3.47414733315574
C        -0.16558230714636   14.91600712273648    1.21914318877441
C         0.41189754614445   16.32057336605942    1.07720239995236
C         2.47370761541655    9.94864116396988   -1.55841171672054
C         3.01204409207972    8.90673608743337   -3.66662628612223
C         2.60881785526011    9.91145995641130   -4.74258331676608
C         1.03261344957313    8.17325482697225   -2.31708090098592
C        -0.24838528902500    8.85292948912934   -2.79226660107009
C         4.80641750729715   11.92168375803319    1.96630865106294
C         6.02396415891137   11.37857976902856    1.35658557408032
C         5.98459291569795   10.18805560996339    0.62371958650636
C         7.11202204523713    9.72739082682583   -0.02696275291154
C         8.29593382109239   10.44372599427434    0.03925028788048
C         8.34963754790393   11.61904674754378    0.77080155664109
C         7.22669870818522   12.08352350882380    1.42741007907948
H         2.22745707125286   13.51525877960738    3.07648607889318
H         0.89378797914050   14.60255913785150    3.54695216820766
H         0.59641096086248   12.31261196254372    4.51911803906988
H         0.64447315444649   11.61974895816098    2.89570472673289
H        -0.70302692113350   12.66197147420974    3.37170875209886
H        -0.60061678597646   14.59999635130009    0.26723504622225
H        -0.93753521052840   14.88946275147513    1.99160028563477
H        -0.37125719009697   17.01740701265901    0.79271560073587
H         1.17958568541223   16.32418487806708    0.30711122091034
H         0.85508220979461   16.65479592911568    2.01275417272412
H         2.91794237936951    7.88648729831202   -4.04514756920885
H         4.05560191410733    9.08041709208829   -3.38688719335992
H         3.29675967016787    9.84146294448586   -5.58048899372034
H         2.65054313001597   10.92190938410904   -4.34423267108336
H         1.60181562806745    9.71808580062246   -5.10157997000523
H         0.93312411818592    7.92562195532646   -1.25575352280690
H         1.20522793483676    7.25178836983628   -2.87714450883112
H        -1.09926406637725    8.21152996042730   -2.58053032147357
H        -0.21608203214229    9.04823548538176   -3.86054198588537
H        -0.38554139697507    9.79497240620398   -2.26787489478427
H         4.96963689156124   12.69355380726429    2.72308184400188
H         5.06637019344103    9.60531119846763    0.58566179260284
H         7.06723902147011    8.80637501002119   -0.58993685220921
H         9.17510607233417   10.08466793610777   -0.47456940299759
H         9.27236927321099   12.17723523123085    0.82934414442368
H         7.26864471152510   13.00290626627975    1.99362569444205

