28
CSD_code = DIJSOH | q = 0 | S = 0 | Stoichiometry = C13H7BrNO5Re | MND = 6
Re        8.23261835969105    2.40027041363281    6.40535217255335
Br       10.72757672155691    2.36519727919621    6.93800112445758
O         8.74165751162142    0.38173792854107    5.62344812733629
O         9.85666772961530   -1.43335259156051    6.27521722504621
H        10.02765791962861   -1.52179684088752    5.32348663941666
N         8.14819030637302    1.03718970732952    8.16387555926440
C         9.17796832855674   -0.32221992023467    6.52476015863992
C         8.87856138055984   -0.05485406283362    7.94134943406732
C         9.29248809987401   -0.93945520802991    8.95163247335909
C         8.93673813471194   -0.66877406638383   10.24179587980293
C         8.12175919719393    0.45023340453966   10.51328029229989
C         7.68882853136553    0.76653303141314   11.81528915156777
C         6.88294356649513    1.84825078549484   12.03943051930020
C         6.46666703901857    2.65064587310271   10.96581788257084
C         6.87613148427566    2.37940190679262    9.68971964678253
H         6.54538030210259    2.98932630278215    8.86059775063097
C         7.72757208837275    1.28545975701021    9.42659912099777
C         8.60252669450300    3.26500412001437    4.69346500739143
O         8.90920846620824    3.68346509912336    3.67831266605734
C         6.33833625340160    2.20418713400821    6.03492715566930
O         5.22213533068145    2.05934697286341    5.82675229463793
C         8.03326491017609    4.13333427083866    7.26424385193436
O         7.99683077132706    5.14919152938714    7.79635203015259
H         9.89625493563670   -1.78960630845688    8.68103330941783
H         9.26052577352545   -1.30017539780518   11.05532443142539
H         8.00552693913836    0.13198526623002   12.62971891161591
H         6.55727473945383    2.08731490092779   13.04011401680189
H         5.81600848493533    3.49105871296421   11.15170316680231

