59
CSD_code = DIJXEB | q = 0 | S = 0 | Stoichiometry = C20H35ClP2Pd | MND = 4
Pd        1.51450641353222   11.69101514513095    1.59043754932146
Cl        0.10518506630760   13.45292959066942    1.04542296913507
P         0.49817626034843   10.17711280568617    0.31073329463612
P         2.81543536519164   12.85187948127291    2.97650989346987
C         1.12956532562574    8.57552943189866    0.95707558628452
H         0.37717261255048    8.19357040438802    1.65971536389542
H         1.24765318627879    7.83065381187587    0.16674980329650
C         2.41796249792953    8.84353770685578    1.69527440754929
C         3.25615555914852    7.77901639892363    2.03098720428541
C         4.42936906589460    8.04013696726774    2.72054139341838
H         5.08459716955116    7.21854801983795    2.97570781285203
C         4.78444757118854    9.32723744168672    3.09129456269937
C         3.93076392155850   10.38354274700780    2.76890485729043
C         2.74278985856664   10.15405509616204    2.06484350705783
C         2.90507543706129    6.36750730644181    1.65938752389865
H         3.62956902822737    5.67289130896901    2.07754822800124
H         2.89916280643233    6.24009887484614    0.57611612707749
H         1.91651597321358    6.10270624334931    2.03334548166751
C         6.07139051898974    9.56552952989079    3.82668916971308
H         5.88110822247196    9.94201253178588    4.83255977065202
H         6.68590919019886   10.29864996951247    3.30504822827775
H         6.63650836930714    8.64063716356563    3.91320033288704
C         4.30894328961237   11.79335974667064    3.15129910787030
H         5.05867599143454   12.17579930531152    2.44609575457345
H         4.74066993402946   11.85352696893388    4.15298279565695
C        -1.29257496218960    9.87545081736334    0.09842635166323
H        -1.77182680562835   10.79497999156631   -0.23270293439657
H        -1.70747679930767    9.60120647755404    1.06897143155485
H        -1.47720523332113    9.07358445555727   -0.61636168079079
C         1.17836861138677   10.39151095140263   -1.42528642311205
C         1.14359418689800    9.12134100009653   -2.27068473015560
H         0.14839960667845    8.67994415199340   -2.28559712475593
H         1.85108536232884    8.38167810732325   -1.90116638863759
H         1.41866317088610    9.36071988825118   -3.29711058498480
C         2.62253151466823   10.87722064594954   -1.25137557896559
H         3.22095009143884   10.13411889800012   -0.71951506678438
H         2.63321197043897   11.82248781706931   -0.67697364695608
H         3.08145056752047   11.06102916678487   -2.22262901553819
C         0.35468678043850   11.50084810092536   -2.08315919200070
H         0.24673878572909   12.34383636196111   -1.39661101373276
H        -0.63583127633908   11.14596214305243   -2.36063355492467
H         0.85237630671639   11.85577874250188   -2.98472247759245
C         3.50445313125320   14.53092938673354    2.75586619329271
H         4.09443434743404   14.83434122742399    3.62063269213769
H         2.68818154467230   15.23170156745643    2.59014679464508
H         4.13717617759740   14.52324780232463    1.86762460566406
C         1.94957741658119   12.88011207213247    4.64103292554705
C         1.17898185053299   11.55753633797282    4.73311264258086
H         0.61248576991366   11.51133450649420    5.66299336468443
H         1.86262188259670   10.70632439502862    4.70014868187915
H         0.46893572154059   11.47823279430423    3.88862002987973
C         2.89207030560594   13.03060796138459    5.83204119687156
H         3.49537827422338   12.13620346367057    5.97370733871664
H         2.30938551468945   13.18566607182476    6.73911001536168
H         3.55428250837450   13.88610472391883    5.70991749552387
C         0.94995957259676   14.03788546638483    4.59380015492857
H         1.45369809462209   14.99861125507451    4.67948305357879
H         0.23742439852636   13.95445683064280    5.41346562386009
H         0.39470297628088   14.01472242192740    3.65315809549656

