75
CSD_code = DIKBUU | q = 0 | S = 0 | Stoichiometry = C24H40I2N2O4P2Pt | MND = 4
Pt        3.65252567764521    1.17891547324874   -0.07312303927068
I         2.21771787103978    3.01217427708850   -1.17967077337675
I         4.40247054973757    2.44806499981643    2.04196675571742
P         3.27247497325804   -0.04268611362440   -1.91225835511461
P         4.69023279287696   -0.60532615368174    0.79768164657946
O         4.46780276487379   -1.09334130727449   -2.21010103850137
O         1.81421762786883   -0.73784590194041   -1.96589481242966
O         4.04973765234445   -1.99921470773459    0.27799751782943
O         6.30087531055509   -0.58670852976728    0.66517087709147
N         3.20351625196487    0.52156663460140   -3.53590620825940
N         4.70299569946424   -1.08839126002706    2.44905042310810
C         4.27179175963323   -0.07136263198768   -4.24396636198047
C         4.96922418086429   -0.94002025455330   -3.51624851264316
C         6.22854291436534   -1.70721376939917   -3.79503454493132
C         5.98669499767248   -3.18514848226567   -3.46413675041269
C         7.33175869020514   -1.15028597384754   -2.88352204126338
C         6.63276846992311   -1.55617910932876   -5.26182369756153
C         1.86041847205499    0.38815485283236   -3.96044633205058
C         1.09912341220564   -0.27309246697919   -3.09311916878205
C        -0.37772669999539   -0.53018097462531   -3.05816034517680
C        -0.95162450864603    0.18566925314981   -1.82756826435725
C        -1.03597365742411    0.01513648788390   -4.32594707919772
C        -0.62261185468486   -2.04012167782783   -2.94566798122490
C         4.04576985342657   -2.33595091847929    2.53722242567137
C         3.68003494465732   -2.82537562021772    1.35537274544740
C         2.88372691406558   -4.03711073041781    0.96855635155429
C         2.61946103523461   -4.91616143550632    2.19122911264274
C         1.55538942095033   -3.55824920929649    0.36572676173409
C         3.67215542231461   -4.82361360017203   -0.08617155634617
C         6.02871941274187   -0.91841492203943    2.91534771230528
C         6.89195311870341   -0.62142573368904    1.94830979929707
C         8.34217789769961   -0.24309822612923    1.98960713419589
C         9.13230412723768   -1.19451500013540    1.08220474585936
C         8.47057302171308    1.19735544154303    1.47554063232646
C         8.86671109763110   -0.32831509082206    3.42333571555410
H         4.42985295455109    0.20568769357230   -5.26789856805177
H         6.89412736158187   -3.75920240601453   -3.63463094062904
H         5.69740116075203   -3.29238601967189   -2.42162858760568
H         5.19495682552271   -3.59177167667933   -4.09014013340012
H         8.24981664764401   -1.71794215736892   -3.01693532207692
H         7.52861856311306   -0.10673797797357   -3.12062324606206
H         7.02453467026689   -1.21590124040493   -1.84174673787321
H         7.53829965542064   -2.12752284659569   -5.45009262807018
H         5.84904444161455   -1.92655001459075   -5.91801719307062
H         6.82802753747300   -0.51460930825343   -5.50279399607239
H         1.57006665648071    0.81052073888996   -4.90187181154567
H        -2.02459057103863    0.02200987430731   -1.76879415998957
H        -0.49126971842752   -0.19296923220206   -0.91829420495833
H        -0.76313152039595    1.25503215021403   -1.88974812732307
H        -2.10538761960666   -0.17544411008077   -4.28841344727014
H        -0.88058472012715    1.08752624412334   -4.40475049741008
H        -0.63140563237766   -0.46737939635007   -5.21233936561151
H        -1.69000906844864   -2.23789957897111   -2.88951388707135
H        -0.21815142499872   -2.55810401662698   -3.81299661050903
H        -0.14964306478424   -2.43577661849129   -2.05070594048607
H         3.90445590951115   -2.77730817933774    3.50439101371718
H         2.05395623427601   -5.79496189246491    1.89157747436448
H         3.55385128777563   -5.24419372744182    2.63987261564111
H         2.04342975456389   -4.37555343755183    2.93756371339710
H         0.97316170313837   -4.40897656015061    0.01899394377889
H         0.97447364152092   -3.01693945608929    1.10973821187823
H         1.74542782914875   -2.89407280817737   -0.47476048990865
H         3.10537978267786   -5.69573985259059   -0.40266855547452
H         3.86206665758707   -4.19759204106664   -0.95453408837695
H         4.62534348363985   -5.15650738504923    0.31969899703151
H         6.22827597436751   -1.03618442090363    3.96189700246503
H        10.18219386265457   -0.91305087245623    1.07648776359416
H         9.04883100795294   -2.21919450290934    1.43897346003282
H         8.75545578504986   -1.14780094792231    0.06374304451256
H         9.51255556630919    1.50645081142827    1.49175130129070
H         8.10109073893200    1.27155101568447    0.45578084909247
H         7.89403484654801    1.87512446187006    2.10092954710983
H         9.91814372631079   -0.05344882204166    3.44044927811585
H         8.32231920753857    0.35490732237047    4.06927226349598
H         8.76875025231642   -1.33837642461719    3.81372456689221

