56
CSD_code = DIKKUE | q = 0 | S = 0 | Stoichiometry = C31H21N3Pt | MND = 4
Pt        8.96329861361823    7.99581180531877    7.32138328642270
N        10.83482119916776    7.33910224952734    8.05625451445151
N         9.56534131821063    6.91483765825090    5.83881617260452
N         6.97279703057554   12.95181052799271   14.20909569164015
C         7.36914290106156    8.26870722779359    6.15105591391988
C         7.51983238885012    7.56933435576910    4.92163451266041
C         6.52755286495746    7.61537548566935    3.94531699691610
H         6.65026910267836    7.08004301671455    3.01427823131416
C         5.37713782150999    8.34794306394963    4.16371867819348
H         4.60806359981817    8.38294256598809    3.40549151393171
C         5.21410800590902    9.03654968727282    5.35564409324542
H         4.31304388126915    9.60973746545719    5.52233493937089
C         6.19628289192962    8.99649355727819    6.33368704863674
H         6.05162386781763    9.54115425742654    7.25568270554560
C        11.46913697169228    6.54378745449935    7.16556806142246
C        12.71478530610875    5.99257451429855    7.46224484814804
H        13.21260582965050    5.35888141736789    6.74605387293457
C        13.30645268676945    6.26323819422706    8.68181177590939
H        14.27073723965365    5.84321638828003    8.92514278397398
C        12.63988231834921    7.08144800483118    9.58467417060670
H        13.06751362303548    7.31601953686325   10.54586813711459
C        11.40629295692721    7.59552212322585    9.22613888344681
H        10.84475048204564    8.23870695821735    9.89145061634428
C         8.76484667392722    6.82034490374074    4.76438914836325
C         9.17761470443857    6.06640992661713    3.66856863905763
H         8.55137302067983    5.97713293725484    2.79609438353008
C        10.41038997663397    5.43120538766021    3.71187175651804
H        10.74473678380344    4.84458750825437    2.86928532799584
C        11.21699379580538    5.54781449068215    4.83295201549019
H        12.17608055447710    5.05741640339719    4.86653541941581
C        10.75782012848161    6.31236532098714    5.90459605756575
C         7.79954567460035   10.56301403771571   10.93659879767595
C         8.63513311880266   11.60243536923971   11.33588851478466
H         9.53664224060525   11.81778037887597   10.78150411996422
C         8.28149460308186   12.35881481900941   12.44183687126274
C         7.09450162656221   12.07023966628682   13.15839038764017
C         6.26232556424478   11.03093868369297   12.76184793553855
H         5.35042400814387   10.80030543806599   13.29392249951546
C         6.62284401174725   10.29227577107092   11.65550084758436
H         5.99368118243886    9.47996276918178   11.32185542367525
C         8.89020409790026   13.48016376320324   13.10038387481357
C        10.04530636547002   14.21546108225976   12.87366771147410
H        10.69760551459443   13.96839802709603   12.04926213178615
C        10.33819773132665   15.26672486329894   13.71996335076786
H        11.23164244651554   15.85239387076328   13.55967958147580
C         9.49548269827596   15.58960730603864   14.78134848363858
H         9.75049795649708   16.41994502650666   15.42402572250463
C         8.33993645589289   14.87334798526201   15.02824687945642
H         7.69235234836767   15.13627950413520   15.85151813650505
C         8.04124065870279   13.81382781663518   14.18287691618755
C         5.90591077793953   13.00705667438225   15.16554235352599
H         5.29135693332382   12.11393523720939   15.07794248604463
H         5.27457527051406   13.88629026286877   15.00067883014229
H         6.31073407853035   13.05402342173163   16.17939803855802
C         8.38477618927684    9.09828852060626    8.82783828459919
C         8.12545990679550    9.77527531004386    9.80634162418423

