70
CSD_code = DIKQIY | q = 0 | S = 0 | Stoichiometry = C29H34Cl2N4Ru | MND = 6
Ru        2.68344846489540    9.16620458819810    2.45482657069173
Cl        2.61886540341856    9.25131934624740    4.82997985052705
Cl        2.61812587479574    9.04009281520607    0.05646652307249
N         2.13584703722542    7.39708546869507    2.28064816629237
N         4.49372737207309    8.25886221408206    2.49464136665306
N         0.66854719941336    9.43774426377733    2.47300529012280
N         3.35698825285526   10.97595072712182    2.56985888091059
C         0.82948143583579    7.14238127073936    2.08695338730796
C         0.40531613156249    5.85015371840680    1.77599131048418
H        -0.64016890918277    5.63924341009131    1.62221651345550
C         1.35734690805338    4.84806438210868    1.65226820239032
H         1.04939607094722    3.84146587369010    1.41444132482268
C         2.70448524975671    5.13993514304291    1.80577886286830
H         3.45268118389736    4.37547091616213    1.67500863018369
C         3.07693376529209    6.44905075396284    2.11597792046187
C         4.41590760622599    6.98031887165309    2.27941231791748
C         5.60396518470458    6.07679889183210    2.15385884201550
H         6.52612758894090    6.63061480161056    2.31296355059544
H         5.62164178967702    5.64445690561048    1.15327121171498
H         5.54380810509868    5.25966964471221    2.87151488307925
C         5.70292734411865    8.89649329010238    2.83553242343368
C         6.23704359540430    8.73784793597944    4.12563538485125
C         7.34132815780125    9.49353126272512    4.48492721296902
H         7.74135681442630    9.38656405854827    5.48319817116693
C         7.94667340214681   10.38080702616914    3.60605112801385
C         7.43972275841266   10.47699125266136    2.32057076670412
H         7.91700992075522   11.13381155043798    1.60622424003783
C         6.33341259085497    9.74430276038367    1.91529534773685
C         5.63948240486875    7.78362991146114    5.11268251258466
H         6.06865707884750    7.94637303039470    6.09785224141133
H         5.83148868266645    6.75095228442550    4.82342029573083
H         4.56222618418257    7.92703694307403    5.17762440678119
C         9.13198052798827   11.18894192634156    4.04223478121998
H         8.89663918958320   11.75643139970100    4.94186752539330
H         9.44176038458025   11.88034762818842    3.26216950531118
H         9.97074165423020   10.53363133607984    4.27517803401993
C         5.85673533058224    9.82740671504046    0.50133817276906
H         5.96366599899051    8.86191593237517    0.00665956320115
H         6.42635054291643   10.56634514481914   -0.05646411100009
H         4.79943620434860   10.08915980287501    0.45844946602232
C         0.01885813164186    8.33534143263224    2.24828817705676
C        -1.47064536799409    8.24653329745066    2.12557836872101
H        -1.87957103742829    7.58609844078838    2.88893523123855
H        -1.72469956535719    7.83303352272324    1.14985437198558
H        -1.92417820083212    9.22983513790722    2.22114612663445
C         0.01263827904702   10.61636763440890    2.86813612483767
C        -0.61873231402670   10.68728116935120    4.11966663897694
C        -1.16906005979943   11.89726407473383    4.52020504574836
H        -1.64212393145617   11.95022469602593    5.49067214514853
C        -1.13437178423324   13.02486587419382    3.71778302100074
C        -0.53359394027574   12.92365504636962    2.47033610752296
H        -0.51533753532524   13.78667175126955    1.81949423626057
C         0.03866371327578   11.74279814104720    2.03070483644502
C        -0.72235725817342    9.51220938136684    5.04531286495119
H        -0.65381088414339    9.85014593109926    6.07657713697377
H         0.07396794427762    8.79294516953426    4.87544272518511
H        -1.68337334127694    9.01139312516917    4.91836698510500
C        -1.72094396290814   14.32454388246801    4.17920238774985
H        -0.92962169444211   14.98631042243822    4.53266999664230
H        -2.42124835240662   14.16718808669366    4.99578481536326
H        -2.23632954890552   14.82681486629013    3.36296703531620
C         0.63471119681430   11.65785715528616    0.66269436073002
H         1.69492607647510   11.40522839444678    0.72052192824219
H         0.52773857212321   12.60270775178413    0.13587967158608
H         0.15400783679642   10.87387725347417    0.07846027434601
C         3.95686112644056   11.92388595706341    2.83043224751702
C         4.71023670499635   13.10034902369559    3.14589385625631
H         5.73980565217191   12.81595499760998    3.36737993011283
H         4.27372478023907   13.58961459647863    4.01650824239683
H         4.69594828148389   13.78669858749889    2.29937443601327

