101
CSD_code = DIKXUR | q = 0 | S = 0 | Stoichiometry = C54H38F4N4Zn | MND = 4
Zn        4.29760779251294    1.74927161174797   23.16078840253707
F        10.71318179747172   -0.62831493692402   18.66731414284501
F         2.38818865629821    6.83030763417629   16.93512441114143
N         5.50794051913802    0.73957957487832   22.04696358406255
N         3.47388809621524    2.73865241698269   21.68880947048977
C         5.94459182178081    1.23916924433449   20.90413363927317
C         5.33226492310126    2.30597573787147   20.24001186346890
H         5.84377459100659    2.67077164393375   19.36126784467598
C         4.13493425479235    2.94900876930385   20.56134981900619
C         5.91099086792860   -0.51689459201282   22.49685776008653
C         6.15375731380817   -0.70923303838311   23.85601504252568
H         6.11348958997629    0.14149190974198   24.52215178141272
C         6.44733591364302   -1.96686273727603   24.34308613399137
H         6.63634677343167   -2.10072544735863   25.39822136624719
C         6.49776909633598   -3.05535219302185   23.48774802805795
H         6.72072925163729   -4.03909545002031   23.87182714769492
C         6.25082487226750   -2.87391215635561   22.13776434849581
H         6.27631127534436   -3.71865821235184   21.46519974682153
C         5.96121524488193   -1.61844879733452   21.64150907454101
H         5.73791143311441   -1.48765026335461   20.59293912049709
C         7.19136744002003    0.71442344063152   20.29486349024884
C         8.32421617894819    0.56860837583997   21.09266861030455
H         8.27341006112739    0.82497558155398   22.14035889903635
C         9.51343917460497    0.12239418052080   20.55049724688475
H        10.39897049868516    0.01094775732867   21.15556363948157
C         9.55674987223416   -0.18523139492875   19.20234197483109
C         8.44939101045065   -0.04837438842449   18.38530626353049
H         8.52083619423144   -0.29816203553282   17.33844915264101
C         7.26876252138388    0.41002414595856   18.93917544231412
H         6.39207625177316    0.51301357110254   18.31714122232580
C         3.65674303936382    3.96822990339319   19.59353513565805
C         3.27436301884705    5.22948001299083   20.04477548584494
H         3.31872719827690    5.45508340151055   21.09967399199409
C         2.85159614841914    6.19864160442886   19.15616027011532
H         2.55731554391039    7.17972906518141   19.49331402078002
C         2.80744500427978    5.89167327045399   17.80805945244282
C         3.18256372725555    4.64955041697709   17.32919831568739
H         3.13404508114255    4.44538210709972   16.27124007453659
C         3.61267934955304    3.69313088901530   18.22940715580610
H         3.89746505385544    2.71426063332993   17.87351986657706
C         2.15213296506999    3.14895547926910   21.85562560723866
C         1.75381341636298    3.64731615227002   23.09636434747260
H         2.49615122179217    3.78273180296887   23.87147787336632
C         0.43201781827205    3.96756337165496   23.33283668220842
H         0.14083381514313    4.35059842158252   24.30005050988704
C        -0.51801167663877    3.79565078841293   22.33869592303427
H        -1.55180971107009    4.04294758504161   22.52602141012846
C        -0.13291541141059    3.29444168804482   21.10642200477555
H        -0.86866043615013    3.14513862317065   20.32979966637804
C         1.18743431012183    2.97080441768371   20.86174420996517
H         1.47451911320668    2.55084608345791   19.90864862572458
F        -2.11797928316029   -0.62830645545358   27.65424477887876
F         6.20701099120717    6.83030677467447   29.38645712370110
N         3.08727486174836    0.73957764659429   24.27461121203907
N         5.12132726022222    2.73864847504892   24.63277062004308
C         2.65062302975301    1.23916425049720   25.41744238736697
C         3.26294681154160    2.30597245849518   26.08156477908437
H         2.75143484299485    2.67076794308977   26.96030785264908
C         4.46027670415500    2.94900719975015   25.76022748042318
C         2.68422500130566   -0.51689530890500   23.82471528609832
C         2.44145390280835   -0.70923264979442   22.46555528860528
H         2.48174125939237    0.14149087477764   21.79941887675725
C         2.14786421807460   -1.96686320223960   21.97847991823499
H         1.95887589985244   -2.10072170169102   20.92335443408148
C         2.09746416330031   -3.05535884130194   22.83381313210106
H         1.87447287180802   -4.03909034356172   22.44974675138281
C         2.34442698557697   -2.87392010653430   24.18380043675364
H         2.31887231320520   -3.71865390983335   24.85637645344590
C         2.63400922065729   -1.61845168626512   24.68006222334835
H         2.85729082294520   -1.48765063775281   25.72863371341089
C         1.40384332225335    0.71442266329084   26.02670636554347
C         0.27099612173464    0.56861273219381   25.22889776431679
H         0.32180684944911    0.82497645737131   24.18120675967647
C        -0.91822929104131    0.12239972788326   25.77106485263214
H        -1.80375930333569    0.01095540819739   25.16599591854414
C        -0.96154440271768   -0.18522691263545   27.11921986062683
C         0.14581292796353   -0.04837482788471   27.93625855394376
H         0.07436387223521   -0.29816054470182   28.98311588639450
C         1.32644406012754    0.41002073918407   27.38239314866190
H         2.20312828021116    0.51300964049677   28.00443021981563
C         4.93846787684036    3.96822657650139   26.72804378469434
C         5.32084981587676    5.22947614449488   26.27680387411997
H         5.27648648641102    5.45507947918023   25.22190529079133
C         5.74361100632166    6.19863921416497   27.16542007235278
H         6.03789345811654    7.17972628043723   26.82826660187461
C         5.78775413850260    5.89167296644258   28.51352171155514
C         5.41263704878690    4.64954932835900   28.99238222796230
H         5.46115208344875    4.44538189846902   30.05034091886925
C         4.98252734936462    3.69312821303383   28.09217209692420
H         4.69773658940283    2.71425945606448   28.44805945533188
C         6.44308363079387    3.14895018802456   24.46595804880881
C         6.84140716428464    3.64731182436412   23.22522071164450
H         6.09907172346644    3.78273020135261   22.45010539198221
C         8.16320318980894    3.96756098585437   22.98875260851017
H         8.45438982961668    4.35059812374663   22.02154032786735
C         9.11322913768445    3.79565338242059   23.98289754307442
H        10.14702861252244    4.04294527210988   23.79557351330712
C         8.72812887199311    3.29444615387717   25.21517085717563
H         9.46387355343980    3.14513483440762   25.99179203233855
C         7.40777935034902    2.97080280102896   25.45984309235872
H         7.12069289093987    2.55084514214029   26.41293846082651

