49
CSD_code = DILBAC | q = 1 | S = 0 | Stoichiometry = C21H21N2NiO4(1+) | MND = 6
Ni        5.22447668507034   14.69359380997716    7.47581690859775
O         4.57787249200520   16.23611596754783    8.33086473580274
O         7.14313706434972   14.57648676608431    8.89764037951804
H         7.89906756184948   15.01448629270524    8.49423413691654
H         6.98060964877427   15.01296931079539    9.73961913317262
N         4.42539775595662   13.29703993740543    8.55222274066094
C         3.21052997977485   14.62873747836395   10.20465859560335
H         4.08053491579730   15.20962028551075   10.50323061340347
H         2.56965518882593   14.47435763730502   11.06709957507190
H         2.67889027669680   15.22147714157517    9.46355301321866
C         3.63529849026907   13.32799204238147    9.61832691609655
C         3.17985545742601   12.13989496401457   10.22224681353933
H         2.53841567136699   12.21093461642561   11.08625328288670
C         3.54190466632234   10.91848947308442    9.72541647356421
H         3.19792552450765   10.00252960369703   10.18113036927869
C         4.37970897272790   10.86893399562510    8.59877566642610
C         4.79573960677778   12.09837646185276    8.04649756312006
C         4.81107641160924    9.64741962550629    8.01258764731461
H         4.47630363805187    8.72301285043149    8.45703545273825
C         5.21776990976068   21.14180944429918    7.47079508925416
H         5.21685955237023   22.22110378199897    7.47002935756470
C         4.47629906618513   20.45268784810665    8.41940591054145
H         3.90071909623306   20.99552111305972    9.15326958268735
C         4.47518918857745   19.07157066774550    8.42456479729448
H         3.90572602805842   18.51527599244320    9.15413220444492
C         5.22014250027487   18.37635752691174    7.47278280055817
C         5.22130444714858   16.91035391981670    7.47363516410402
O         5.86602658406026   16.23622510910713    6.61730148829196
O         3.30743958327417   14.57324009126545    6.05157711038317
H         2.54984519812226   15.00576793622868    6.45778535568907
H         3.46970747116534   15.01732218099164    5.21347782989483
N         6.02494484616254   13.29699038115031    6.40058580704709
C         7.25098066941273   14.62874065330509    4.75659707789561
H         6.38515877755154   15.21233031210256    4.45115159287441
H         7.89915693436850   14.47449040816019    3.89962464728308
H         7.77714318657040   15.21863613534762    5.50379523361305
C         6.81730617864218   13.32795794977793    5.33620481263321
C         7.26692779442426   12.13982928390514    4.72796660946325
H         7.91002933600468   12.21085186824365    3.86519388621285
C         6.89730028415962   10.91843333050096    5.21918283592680
H         7.23674203530353   10.00244907687108    4.76012350593159
C         6.05822578157756   10.86890028589105    6.34488613138699
C         5.64793749167621   12.09836542034902    6.90138850602165
C         5.62042937836859    9.64740464501718    6.92632884228524
H         5.95058244359165    8.72297340634981    6.47848791101206
C         5.96043025605584   20.45259971100488    6.52317967879389
H         6.53509131125272   20.99535139237220    5.78853879463640
C         5.96394084685783   19.07148149931657    6.52003681165813
H         6.53434381463075   18.51511036807080    5.79126060767992

