34
CSD_code = DILFOU | q = 0 | S = 0 | Stoichiometry = C10H13CdN5O4S | MND = 7
Cd        9.19613617741662    0.67354079202607    6.64685765552109
S        10.42199570076971    1.93974206531125    4.80688807542771
O         7.51298937185437    2.68399970090147    7.69106639656442
N        11.17215757405641   -0.02494963698389    7.73040121483326
O         7.37847376541531    0.06394613446336    5.56213549026472
O         7.74357829406555   -0.00969049581796    8.46304020701520
O         9.10351473019059   -1.28399078592763    5.60569358122061
C         7.96080907173543   -0.98534731537278    5.19555156151913
N         9.51548527737957    3.58491073080214    8.27228703902962
H        10.10095286024502    4.42254564122473    8.23196838821177
N        10.10038067808445    2.39041125437487    8.22896583518504
N         7.82571658108479    4.92974819123484    7.47236645714214
H         6.93359829531904    4.99812149882755    7.00552474216546
H         8.53365554385774    5.57200725247548    7.14400681145487
C         8.22144684828706    3.67061680723688    7.76102160290763
C        11.35041931441113    2.24411163012450    8.42880179188314
H        12.00933653716415    3.08110948181044    8.66984378205214
C        11.67134931409692   -1.23545801509943    7.55573189149778
H        11.00748998829148   -1.95195916113336    7.08972957103652
C        11.93708310986122    0.92519129786880    8.28186708899257
N        10.17968974121061    4.53054593705558    5.82008116862501
C         7.25247855307807   -1.91623249105741    4.22950590297931
C        12.96770071922476   -1.57327288988743    7.92255235211378
H        13.33648410053259   -2.57350488016911    7.76138226336516
C        13.25609365133720    0.67405302203794    8.66563803079214
H        13.85267574947955    1.46296723032671    9.09743655772338
C        10.26637657458640    3.45484404343743    5.39334269256659
C        13.77468903930230   -0.59550050645453    8.48461865514120
H        14.79156608264390   -0.81709922300398    8.77290913111571
H         6.17678718680642   -1.79411082487304    4.31505418538266
H         7.55753790420485   -1.65152454499181    3.21892839167564
H         7.54419903473324   -2.94429564764028    4.42364355134346
H         7.08437773140680   -0.39532853716037    7.87083887640575
H         7.45717489800233    0.91265224481803    8.56031905657380

