53
CSD_code = DILGUA | q = 0 | S = 0 | Stoichiometry = C22H24N2O2S2Zn | MND = 4
Zn        1.86873045271657   10.18487738417385    6.79571678466622
S         2.17925044314891   11.09512709424673    4.68672035383932
S         0.78318043774912   11.19337678805088    8.57847252694186
O         5.94250165647626    9.19232793496369    6.61269108177553
O        -0.44186851380163    6.80561314393760    7.72375865531403
N         3.84051600498960    9.73434760851983    7.09382606149099
N         0.77445444496554    8.45848779720403    6.86815305586752
C         3.52218200035214   10.21994803494317    4.03143142141944
C         3.57446767582752   10.21812018627362    2.62710357388805
H         2.78103739877216   10.73317382965359    2.10792952745840
C         4.57599514117944    9.59157010824425    1.93105545374774
H         4.57504671801042    9.60696111827086    0.85141498690811
C         5.59148690195898    8.93389578829838    2.62275905304018
H         6.38196812723834    8.43083523159610    2.08778891387716
C         5.57963170440859    8.93962832892455    3.99433839288006
H         6.36499224340201    8.44112628453986    4.54065039959960
C         4.56183003428526    9.57197586080117    4.73438165620310
C         4.71583378009157    9.52172354823821    6.17124007625374
C         5.91496091770242    9.17387135564658    8.02980164400237
H         6.66155685075569    9.88020785580439    8.40188408669794
H         6.17161458424855    8.16605190308478    8.37050228050106
C         4.46853362617710    9.58105565386203    8.40396075561397
C         4.43161899921595   10.90841964274556    9.15885593297930
H         4.92659469193929   11.68605021332079    8.58092215097263
H         4.93334034098907   10.80155060118447   10.11758597508276
H         3.40207070057877   11.21270401438961    9.33204584899223
C         3.75769177851616    8.48791016796877    9.19884852446556
H         3.73600371547511    7.55770898945519    8.63386250132366
H         2.73554016144898    8.78673816317140    9.41563406469483
H         4.27615479315025    8.31902375527913   10.13954432064959
C         0.32828336032454    9.87692506464414    9.60746150374226
C         0.13071303062813   10.24114169492814   10.95027776647072
H         0.29906340381762   11.27591240176344   11.20568457656557
C        -0.25136709811930    9.33646958503366   11.90725032268149
H        -0.38368103205278    9.65553339376302   12.93030089895564
C        -0.46370470115570    8.00514506253612   11.55420834182415
H        -0.75790457795373    7.28120200322465   12.29831255944903
C        -0.30234415795004    7.62561532755636   10.24599190411972
H        -0.47236087240587    6.59965962580104    9.95916722484094
C         0.09250941816683    8.53271672648272    9.24364159339425
C         0.17725929341022    7.98492954207892    7.90809607921318
C        -0.25044295141828    6.40881259704905    6.37649911281967
H        -1.23002594087743    6.27845331359259    5.90946879084926
H         0.28310571750994    5.45347631889143    6.36673853393930
C         0.56825908074630    7.55717466830419    5.73703687325337
C        -0.21939579132824    8.27030724199485    4.63968996278979
H        -1.17054138736104    8.62801133898391    5.02845921882730
H        -0.40477619174093    7.58663885455110    3.81475942915744
H         0.34282095318628    9.12448033709298    4.26975325489478
C         1.91393811669829    7.06867997749858    5.20528141427038
H         2.49839164955065    6.61556324068902    6.00404498498585
H         2.47771737276955    7.90029427283745    4.79083966465245
H         1.75546549358630    6.33244902390935    4.42095592715517

