53
CSD_code = DILHAH | q = 0 | S = 0 | Stoichiometry = C22H24CdN2O2S2 | MND = 4
Cd        8.83586101943409    1.40389394192685    6.42056645311771
S         8.16654122944835    2.57027158673625    8.48199125759710
S         7.72989494304318    0.32858010594881    4.50359813678284
O        11.37064308864896    4.97428258103554    6.28156245630171
O        10.99216442923564   -2.40215783060169    6.17752298663107
N        10.12167049590590    3.16167239945143    5.95309586714859
N         9.99068316005940   -0.48172466493325    6.68969119767726
C         9.66696067919218    3.24502526305976    9.03696486194245
C         9.82046514406415    3.27087707688016   10.43274729687306
H         9.03140461630148    2.82971344886214   11.02288463903877
C        10.91977561848496    3.82550063150197   11.04004974139358
H        11.00364777070844    3.81493397252592   12.11664642834193
C        11.92212887755249    4.40276046716588   10.26542772767498
H        12.79035033037830    4.84285951399875   10.73098235699601
C        11.78831032949458    4.41473394423046    8.89789067027240
H        12.55204386245555    4.86768936239467    8.28421237589466
C        10.68265702953926    3.83843498551188    8.25284606216063
C        10.67679270286317    3.94425693385446    6.80568070026366
C        11.25103479930298    4.90645071176776    4.86881315452355
H        12.25316346841543    4.83950925845554    4.43607944890691
H        10.76639049198597    5.82135774927394    4.51667061831574
C        10.39734179810499    3.63812177430048    4.60257981874349
C         9.08234134250986    3.95704343636114    3.89085401793463
H         8.48037553755653    3.05132141931404    3.80178461656774
H         9.28289560192603    4.34611717978512    2.89530432116390
H         8.51621131882035    4.69674716939351    4.45522902523917
C        11.17917300653013    2.57013123876235    3.83506714050576
H        10.57639765016157    1.66845278195913    3.73220679430992
H        12.09689425483291    2.31594197731903    4.36421875359504
H        11.43160271505820    2.93574883053184    2.84261657112163
C         9.04849438554447   -0.48468332173338    3.71949376057295
C         8.97672315800173   -0.50630175691464    2.31705285450119
H         8.15240481584901    0.01862763273729    1.85833594707672
C         9.90553819195181   -1.15883317763387    1.54473979156329
H         9.81892011466068   -1.14232473851377    0.46843727706762
C        10.95399513788910   -1.84407251467225    2.15223884531289
H        11.68919946316736   -2.36224462185000    1.55617442323079
C        11.03721585287131   -1.86110739098486    3.52377240301600
H        11.83869301861135   -2.39608200332330    4.00998460124537
C        10.11109386960013   -1.18586866241222    4.33427868540845
C        10.32557429515434   -1.30570674222792    5.76431024785458
C        11.10273736272926   -2.33790628402955    7.59127340027650
H        12.16162297401314   -2.37732128088017    7.86147253658581
H        10.58856173372438   -3.20281223682772    8.01983277342229
C        10.43374642768018   -0.99329738043691    7.98144945636051
C        11.43217128967494   -0.01337223744105    8.60097676592997
H        12.27177782329924    0.15268432644903    7.92699362073127
H        11.80613680232777   -0.40833287922383    9.54245572860910
H        10.94579825381577    0.94266933366962    8.79140764922094
C         9.22768232850514   -1.18459623405109    8.90110887298451
H         8.50843362180088   -1.86392740569723    8.44588984719992
H         8.73882980512734   -0.22457504217523    9.07425443506489
H         9.54883196211080   -1.59396262828542    9.85608057969823

