53
CSD_code = DILJUG | q = 0 | S = 0 | Stoichiometry = C27H18NO5PW | MND = 6
C        -0.66064303834062   -1.04598342881974   12.46459352475645
C        -1.25015939269118   -1.84989885859411   13.42455081564480
H        -1.78574371361103   -2.72572545631977   13.08048593422511
C        -1.18366332915716   -1.64086363002081   14.80229311408560
C        -0.52301864792334   -0.55168117964434   15.36057138727470
H        -0.48539582643167   -0.51378977467879   16.44095686352026
C         0.12356973026913    0.43521397936096   14.62587328823853
C         0.79175173266373    1.58283270597849   15.24039146185426
C         0.59365204295980    1.90855778596719   16.58730435285950
H        -0.07203694049989    1.31553864898452   17.19264666994162
C         1.23111032941271    2.99737430027518   17.14310169862464
H         1.08029767691430    3.25218825047020   18.18109296058540
C         2.06264671994696    3.75668474981587   16.33253405245927
H         2.58747277163110    4.61722116967856   16.71419453751789
C         2.20045004924618    3.39060490705757   15.00722688508940
H         2.83583201481575    3.97359341160531   14.35349025458381
C        -0.76557600141040   -1.35214384289984   11.03470277244116
C         0.31971089389927   -1.11471445074887   10.19629214582722
H         1.24701476204246   -0.74897120404697   10.62069838291818
C         0.25094682713893   -1.36330911158288    8.83931186827414
H         1.11583363034439   -1.16092946276111    8.22870163218906
C        -0.92554392671339   -1.85915911235296    8.28488294734927
C        -2.01613661645317   -2.11174499189186    9.12200980203118
H        -2.92168341288890   -2.49498692935513    8.67869307792816
C        -1.93689375280525   -1.86367286297768   10.47303258985176
H        -2.80069252845014   -2.03922442754428   11.09722825615285
C        -1.81941049834940   -2.61967420656733   15.70117007379721
C        -1.66975697598984   -3.98696275104861   15.48109851612358
H        -1.06761724783993   -4.33048596715477   14.65235430785756
C        -2.25867695728937   -4.90421884455756   16.33121426179721
H        -2.12696487771428   -5.96144238247356   16.15332186228107
C        -3.01252494859863   -4.47154854307303   17.40938293824805
H        -3.47386306787432   -5.18881901451317   18.07162404933564
C        -3.17264256243246   -3.11453794754689   17.63404318443968
H        -3.76488495093988   -2.77106199306125   18.46969004972856
C        -2.57836302931240   -2.19551115586398   16.78949861317840
H        -2.72352857185854   -1.13791270715783   16.95870671241895
C        -0.06784425039183   -1.85022504180326    6.06711368089532
H        -0.45208254093067   -2.10845681317238    5.08161249244647
H         0.81725540598159   -2.45781906705866    6.28061493754424
H         0.20488727919378   -0.79074126010694    6.08461285636296
C         3.26314628155364    0.70271580398118   12.51718210973744
C         3.27142061842611    3.39263631609687   11.98713389763206
C         0.49556979201499    3.51989632181283   11.93890331092089
C         1.94123046338653    1.80372030436491   10.27390979161602
N         1.59003258858854    2.34205108508618   14.45809016690439
O        -1.11437728771485   -2.12837552181448    6.96792050262441
O         4.11256389214007   -0.05039606824204   12.66267906109343
O         4.11499777000670    4.15303780549074   11.82428305090050
O        -0.22083410547458    4.39102241133125   11.75131291600785
O         2.01159151306882    1.67197651536316    9.13546522665775
P         0.19666538157438    0.41005249723578   12.88484602477965
W         1.83620883286240    2.06626903951603   12.22665412845234

