53
CSD_code = DILJEQ | q = 0 | S = 0 | Stoichiometry = C23H11F10O7PW | MND = 6
W         0.43589469934019   11.34995365433348    2.89757808309988
P        -1.46388942989477   11.30954157674545    4.45627741804304
F        -4.96327460468989   13.04999282826604    5.41745746515244
F        -7.04331720932423   14.74828685568865    5.19969814925340
F        -7.75755527992880   15.73487378256967    2.76010184559714
F        -6.35230621428444   14.99823037559068    0.53979833574811
F        -4.25325861722803   13.30585040661744    0.76912060140783
F        -6.17522531446227   10.98569685008536    2.16949523960159
F        -6.78750169578127    9.80482576335342   -0.18645068447510
F        -4.97847518111292    8.14984573633904   -1.39483433403614
F        -2.56539012371417    7.69843865978119   -0.20368099485121
F        -1.94284667327771    8.89013441447706    2.10983429212050
O        -2.49458658730692   12.57782960028866    4.24254469627498
O        -2.65878144438638   10.19893136234577    4.18777136348942
O         2.80647040825308   11.49949274262901    0.86593137433965
O         0.01065479311286   14.45733074834443    2.76893360062433
O        -1.38256385565714   11.11235219278523    0.35561980671117
O         0.79775419282613    8.23912503942636    3.15512534955473
O         2.70088117458709   11.68754660890004    5.04001161282937
C        -3.35725126424812   12.22955735872355    3.19227973820133
H        -2.81070299018717   12.25679680904421    2.23854140771273
C        -3.74070537287029   10.73129347715157    3.47908957685989
H        -4.63332550734397   10.69766798154238    4.12027233259942
C        -4.53361612275639   13.15926587141364    3.10201688321826
C        -5.27456828903937   13.53602109971332    4.21737852620998
C        -6.35667142269038   14.40527272857719    4.11244590551535
C        -6.72394900237548   14.90811522209437    2.86789721646776
C        -6.00477158048222   14.53307274770754    1.73551302903797
C        -4.92225382252065   13.67057702707299    1.86625202783433
C        -4.03610109436571    9.99818163211758    2.19398671693425
C        -5.26917390533079   10.19181295515174    1.57572991726757
C        -5.59977657674760    9.58620269370030    0.37102512819740
C        -4.67810764996787    8.74120727282886   -0.24451497876094
C        -3.44769277694859    8.51435499042963    0.36323263052073
C        -3.13558730181406    9.14118726818320    1.56933169269642
C        -1.29108998444107   11.27767124956204    6.30699986822776
C        -0.59832331594741   12.58290876736767    6.68406604118166
H         0.32353309193780   12.70866716755313    6.11547866798474
H        -0.35217003016937   12.59083746573939    7.74431117652547
H        -1.25027395004209   13.42769263346145    6.46976541695624
C        -2.64019279905481   11.15192397825788    7.00341195450279
H        -3.28339507234553   11.99235615811940    6.75866862673817
H        -2.49366508195929   11.13829154504414    8.08187352978547
H        -3.13760030153976   10.22806812678349    6.71557631287655
C        -0.41271367029159   10.06714054403474    6.61067048527467
H        -0.90175025531664    9.15497514130072    6.27029788802833
H        -0.23082939871122    9.98633999239534    7.68089740717843
H         0.54897932925153   10.14891687871213    6.10362059414152
C         1.94693987883462   11.43732244522868    1.61380427304001
C         0.18880083868767   13.33054227697210    2.81066450909958
C        -0.76097624236369   11.18523806666055    1.31587382189731
C         0.65102822806636    9.36211428750579    3.04760297266646
C         1.80997037799175   11.55342694132139    4.33770548283484

