53
CSD_code = DILKAN | q = 0 | S = 0 | Stoichiometry = C27H18N2O4SW | MND = 6
C         2.44136168182681   -0.07209599973285    3.31733559131618
C         2.86293556065842   -1.22347523596225    2.66668579948146
H         3.42109897907964   -1.96470575340031    3.21681618482304
C         2.59365507085423   -1.39792824301332    1.30951779555266
C         1.93039601129099   -0.35861231382607    0.66129492676597
H         1.68742040893820   -0.45493924770791   -0.38422701011010
C         1.52815207645615    0.76498015547483    1.37480710483106
C         0.82511219746052    1.89020507523544    0.74965593790248
C         0.74317206823822    2.06493576116481   -0.63231111824589
H         1.19946638088885    1.35370365180014   -1.30160745777768
C         0.08546602576755    3.16681763463333   -1.14341139826253
H         0.01190970304663    3.31819350074005   -2.20922449685366
C        -0.47183860358223    4.07523177481018   -0.25168331164198
H        -0.99360118097699    4.95092659642046   -0.60266144235922
C        -0.34446515913455    3.83898608131198    1.10305206723034
H        -0.76562347131055    4.52758096136917    1.82451496813771
C         2.80533258518494    0.12360288599068    4.73286429334554
C         3.54839146235566    1.24270212010000    5.10304409180743
H         3.83559349158485    1.96428911774449    4.35136873959509
C         3.94760404802381    1.40632881629449    6.41602295631851
H         4.52383822322634    2.27513407838440    6.69659815545209
C         3.60211434857852    0.46321359972443    7.36995769939712
H         3.90186868873870    0.60015050561929    8.39792143982781
C         2.87182686476751   -0.65489194454967    7.00520359451839
H         2.60115271987816   -1.39013074827698    7.74817588852760
C         2.48408733148208   -0.83292914539723    5.68962995369009
H         1.90581767367589   -1.70028157271503    5.40477033906193
C         2.99543706803603   -2.61316936752838    0.59973232889036
C         2.94030023085842   -3.85726923939590    1.23232620861304
H         2.57825986124401   -3.92666764821454    2.24692558737485
C         3.30921966614852   -5.00266345700533    0.56528772718679
H         3.25521092439708   -5.96384508541640    1.05316975825469
C         3.75732564838484   -4.93934575032939   -0.75413102994107
C         3.82516604550753   -3.70674079070457   -1.39063986826661
H         4.17721992749282   -3.62312282673259   -2.40627928708530
C         3.44186295225006   -2.56241326166552   -0.71858261002079
H         3.52102484736223   -1.61005221522500   -1.22244408915779
C         4.67281895264766   -6.01937689248839   -3.19525702672504
H         4.92929826065831   -6.95411114478990   -3.68405306846633
H         5.53710420702854   -5.36177523609031   -3.18344665849981
H         3.82973453764844   -5.55866151101187   -3.70144704884464
C        -0.94047776581099    1.01742793244973    3.63806304859583
C        -0.77177152819535    3.73362863938249    4.36531079802626
C         1.92642007119467    3.78256325329785    3.80126819585248
C         0.73926057805204    1.94500443485958    5.60853411827959
N         1.75135740671116    0.88970283125719    2.69819641441249
N         0.28541150320619    2.77904457003169    1.60680026674338
O        -1.76788350030076    0.22661068510217    3.64649265746224
O        -1.51755187538786    4.52014113742215    4.74948391308348
O         2.69740572340683    4.62111830442477    3.91534941192849
O         0.77654332362848    1.72495525979181    6.73534312270909
S         4.20772279097860   -6.47023238842933   -1.49946485609130
W         0.50323495579475    2.39075765481890    3.69695069337217

