49
CSD_code = DILMET | q = 0 | S = 0 | Stoichiometry = C26H15FNO4PW | MND = 6
C         5.35299033011957    1.82918967572429    1.96906309566455
C         6.25010997823107    0.77799270907003    2.03959208568146
H         5.89873074521531   -0.19891304688945    1.73193207599097
C         7.59446476801650    0.89028770518033    2.39514323983850
C         8.16704408601562    2.10278486136562    2.76502188595724
H         9.22073987409563    2.08358873548415    3.00833448938425
C         7.48005535395189    3.30824719770011    2.83249586703063
C         8.10197058077627    4.56074516519307    3.26524970615796
C         9.34378935886483    4.57551959131740    3.91057127976521
H         9.85674264846292    3.64978413726933    4.11374673426571
C         9.90779069306684    5.76884094313797    4.30973353963611
H        10.86519396509585    5.78504535238874    4.80775166814272
C         9.20964351546672    6.94172055527225    4.06113398450784
H         9.60364686205141    7.90245582194913    4.34970913067861
C         7.97948808459064    6.85445774562160    3.43770014577845
H         7.41176868252971    7.75497463708101    3.24330112074090
C         3.96332067300264    1.61584362384022    1.54421520390287
C         3.33838503175667    2.55839280330399    0.72833169370160
H         3.89682687436656    3.42295901252114    0.39224944755445
C         2.02909577645564    2.38959373895753    0.32302898750493
H         1.53922289225935    3.11630013396922   -0.30471234903776
C         1.34484499056774    1.26282863109923    0.74323302315279
C         1.93641676091724    0.30851105829114    1.55232257345373
H         1.36994930481784   -0.55459367072565    1.86473112194990
C         3.24667984437244    0.49076624555810    1.94985211146264
H         3.70975993639811   -0.23577189974962    2.60062895212425
C         8.43889439608603   -0.31632796628531    2.36300394054936
C         7.97581198349919   -1.51860130178151    2.89256404411722
H         6.99738188483981   -1.55820909078479    3.34927941397774
C         8.76849466901733   -2.65070595491792    2.86537568216887
H         8.39929982821838   -3.57433990027130    3.28634292272970
C        10.03270060504338   -2.60234487727983    2.30208468525300
H        10.64984204496024   -3.48790726378756    2.27775096205871
C        10.50126906429977   -1.41332926510853    1.76879465719288
H        11.48391603828262   -1.37116318986974    1.32227193070133
C         9.71321641573895   -0.27800791608058    1.80183388277383
H        10.07682323803114    0.64112688634297    1.36493062987409
C         6.04796566107488    5.73238854594053    0.34127004096732
C         5.27023003436872    7.77492210469056    1.99249609100868
C         4.62853081415556    6.02771498276333    4.06122984854057
C         3.47721468723624    5.82508356235490    1.52319301746484
O         6.44736537936171    5.72421491956510   -0.73067271024750
O         5.21553510205458    8.91133104436993    1.85072937625395
O         4.21132186353071    6.21214802933136    5.10895419246559
O         2.39773505917687    5.84987842669409    1.13601197787338
F         0.06695562994574    1.08493245181163    0.35403518420370
P         5.79311844160088    3.45363790704856    2.41528977976779
W         5.33158743676744    5.81708376986561    2.20151864773646
N         7.42431811124604    5.70882263147048    3.04645098757016

