52
CSD_code = DILMIX | q = 0 | S = 0 | Stoichiometry = C27H15F3N2O4W | MND = 6
W         0.61761136384745    5.35522883351665    2.88764371590406
F        -1.06307948902936    9.32564583520895   13.17336727255501
F         0.99131678425274    9.95725830477818   13.21965001313971
F        -0.50731798447600   11.23487224392106   12.35476405936135
O         3.58335243807433    4.60026382434829    2.19682936725488
O        -0.11247938203058    2.35296021119999    3.34019453428347
O        -2.40268382250569    5.96120377977126    3.48551445740220
O        -0.07666734474632    4.67392778043080   -0.07644478180249
N         0.99925441849290    6.12438582086193    4.89678373005490
N         1.05979779386342    7.42783426079725    2.61629854522610
C         0.91840406955844    5.40990586744956    6.02326911875235
C         0.75779169138571    6.00005122518530    7.27021529673146
H         0.66295704242553    5.37242829302344    8.14226307947357
C         0.69574634219371    7.38786037717021    7.37965588593804
C         0.84503444714914    8.12431211164208    6.20820992465640
H         0.83375725323842    9.20090563324685    6.25289986988220
C         1.00348835603649    7.47012010088723    4.99119006416950
C         1.17390515298734    8.18714004336422    3.72375317989356
C         1.46738515021686    9.54955153656146    3.64994299092717
H         1.57728322259352   10.13603354130216    4.54768836347276
C         1.63606380697212   10.14440496264834    2.41477801161665
H         1.86290716139492   11.19633687636017    2.33768622208595
C         1.51262996286863    9.35411075407879    1.27835793255423
H         1.63704619163054    9.77328556802942    0.29302618356677
C         1.22774476172501    8.01126913629983    1.43092580319122
H         1.12636985902832    7.36753198613777    0.56647925789201
C         1.04639408868510    3.94348056352457    5.93964893199424
C         2.19310188572673    3.38432613035266    5.37877395921338
H         2.96935165076923    4.03130406419094    4.99523448796298
C         2.35177296584092    2.01167055239527    5.35079318360515
H         3.24272735877963    1.58407110098190    4.91633606027457
C         1.36706528188397    1.18756419129480    5.87070908336675
H         1.48570689041841    0.11534048637321    5.83406233373928
C         0.23058539885983    1.73896284911072    6.43742478421708
H        -0.53773647076419    1.09766337445676    6.84236674779441
C         0.07388144474893    3.11228673765874    6.48510928140486
H        -0.81640631162261    3.54453618509778    6.91902864041634
C         0.49257210884099    8.04823064385359    8.67375870874376
C         1.11718049536603    7.56361626809325    9.82237345853036
H         1.76958657739029    6.70651394996623    9.75668664244919
C         0.93071483612491    8.18666806283295   11.04007764879438
H         1.42248736895995    7.81559571305803   11.92611907909385
C         0.10949456738993    9.30449630168220   11.12126843717740
C        -0.52818396981724    9.79334771519359    9.98888835904698
H        -1.17054735826632   10.65728803371300   10.06213883871737
C        -0.33051228542267    9.16908568634124    8.77305996429289
H        -0.83986317155469    9.53979417924944    7.89661479816218
C        -0.11267432586109    9.95728941710927   12.45515224806286
C         2.51865912060186    4.90360918781868    2.48589290707733
C         0.19502973610745    3.45360651792298    3.23045400011425
C        -1.29792698570091    5.76455355308817    3.26190384554663
C         0.17961985535389    4.91876962641173    1.01658147202333

