58
CSD_code = DILMIU | q = 0 | S = 0 | Stoichiometry = C15H36Cl2P4Ru | MND = 6
Ru        4.08367946665140    4.56978953725402    4.70060286617381
Cl        2.91771360911721    2.98405188752924    3.26490969784546
Cl        6.10080156481339    3.35378389905260    5.23538578187619
P         5.14250924938633    4.91735858780869    2.65687373915654
P         5.10405670697223    6.07390104063118    6.07036778452290
P         3.01259704549551    3.23089736086058    6.25338159335346
P         2.24179123821856    5.76905952169500    4.20094133978432
C         6.53537872778155    6.06169498453514    2.28784891479755
C         5.89757722657710    3.39420752353925    1.98883171556050
C         4.01871313530573    5.38691952030114    1.27025174639347
C         3.11940057604536    6.57113132408158    1.61664210782259
C         1.89961490406010    6.13690330824829    2.42427095467328
C         6.65675218751739    6.85455830856064    5.49894009775117
C         5.66561962286521    5.59417856359923    7.74631767342562
C         4.10634457085462    7.57016757372688    6.49135108864299
C         3.39589738528457    8.14126895798878    5.26667314512782
C         2.06986766002332    7.43830788675244    4.98774107849544
C         3.08971200746022    3.42880897994441    8.07905003490957
C         3.51961773637840    1.48194497277769    6.15047208763870
C         1.18558246553104    3.08935621887626    6.04904008256419
C         0.49869159507769    4.45213335312352    5.99734997579139
C         0.58094067116776    5.07659671897086    4.60773903183230
H         6.23196378572605    7.10055330194679    2.40555896750077
H         6.85689974643302    5.89814112606348    1.25880225240832
H         7.36508735806229    5.84399698800408    2.95654493613779
H         5.20265995448078    2.56150689323524    2.08253826368490
H         6.79231323430397    3.17267008723656    2.57073861731394
H         6.15739421388998    3.55012244874952    0.94066853747483
H         3.41189818174922    4.51448324324218    1.01582205914724
H         4.65128119523326    5.62817715812528    0.40995632709997
H         2.77769731142690    7.04583740855552    0.69134568115740
H         3.69023009783606    7.31740156683829    2.18027142121394
H         1.12246841914947    6.90928115317972    2.39481101061982
H         1.48795794759064    5.21974139350482    1.99145132131488
H         6.47473495746497    7.44516530528129    4.60456842383628
H         7.36129840829982    6.05341416760965    5.27762832086276
H         7.06109341194687    7.49389113502093    6.28418849348324
H         4.81139181448679    5.43320677786235    8.39812602516074
H         6.29082086049049    6.38593023360314    8.15964777062817
H         6.24399310454180    4.67492743205400    7.65847553955403
H         4.78433471961045    8.31180673956207    6.92464363599230
H         3.37515044158996    7.29186920500765    7.25596526618859
H         4.05053623561001    8.03948703641028    4.39442534235109
H         3.20543376734031    9.20806735141347    5.41968792449027
H         1.52704812120662    7.30056462134575    5.92859803576342
H         1.44864250615409    8.05342443801104    4.32846156164443
H         4.12036806398186    3.29005241291050    8.39948565433095
H         2.46458849692841    2.66998424937142    8.55058335695018
H         2.74298538092761    4.41754030544747    8.37611675526519
H         4.56548893510825    1.41271575139836    6.45142889665255
H         3.42725678157980    1.13470361730843    5.12244764023303
H         2.89477112988498    0.87897081215341    6.81083018804221
H         0.81182285543663    2.50529252940519    6.89633100446876
H         0.98658086743808    2.52942931992312    5.13225948067841
H        -0.55459655259853    4.33626249946567    6.27148311991053
H         0.96230468509840    5.12147311612030    6.73163982566446
H         0.34978516676402    4.31994380737543    3.85264696391353
H        -0.14014495814306    5.89684433710610    4.50923884048308

