81
CSD_code = DILQOE | q = 0 | S = 0 | Stoichiometry = C40H34BrNO2P2Pt | MND = 4
Pt        9.84016645590647    6.59206261866520    7.44534691817400
Br       11.21818636275664    6.70618096701479    5.44002032624239
P         8.57420382088678    5.06639338975903    6.32952948471889
P         8.67761453872503    6.65925226912370    9.42179568475634
O        12.94278908780530    7.20386916496937    9.07488439657314
O         9.23956616498276    9.36000630590548    7.72025613914278
N        11.00587010490635    8.06319547458929    8.23406906237281
C        12.25153323100757    8.14701864531447    8.76847867989533
C        12.59440693299788    9.62654835928348    8.95726488045257
H        12.88804525001451    9.80144822538321    9.99217940759793
H        13.44473248229601    9.86794574009419    8.31869635345168
C        11.32224459872620   10.36639252809881    8.55602070491421
H        11.47022317601062   11.06867511919680    7.73550022217289
H        10.86099904759017   10.90525752093216    9.38499985049730
C        10.39548553076586    9.25125082326560    8.10874468727546
C         9.36451038654427    3.47333276225907    5.94847642725760
C        10.72127146816779    3.30098306543119    6.19979944225708
H        11.30447716105047    4.11568791165636    6.60979793417741
C        11.33302049741855    2.09289222164741    5.91571242027179
H        12.38761630620216    1.96861043785390    6.10968143713767
C        10.59454520308831    1.05054302332183    5.38231619982011
H        11.07197568143982    0.10866543103837    5.15594751225040
C         9.23834994417435    1.21230571828287    5.14364144709834
H         8.65982269674011    0.39654227218286    4.73481877565530
C         8.62053402095141    2.41507003552588    5.42954363044120
H         7.55766808511294    2.53184160459834    5.26460134341585
C         8.07481018365547    5.80766886865602    4.74633041249391
C         7.92225943749278    5.10716713505910    3.55811417314756
H         8.12653485319218    4.04734682047881    3.51846348346393
C         7.53526843059386    5.78183434737571    2.41245114560258
H         7.42620219519024    5.23909912634923    1.48495617731692
C         7.30005738564225    7.14565904337170    2.44818163627796
H         7.00387963057120    7.66494574804056    1.54878590179868
C         7.46380710726389    7.84921119976521    3.63159403686454
H         7.30174187026816    8.91640194352157    3.65683593372556
C         7.85454910659903    7.18397835944264    4.77665630728194
H         8.02295133904515    7.73061966235163    5.70122244068661
C         6.97397759073431    4.48792975049375    6.99726414596905
C         6.97220659748291    3.48753320427512    7.96607993432473
H         7.90987199167679    3.06521835729785    8.30048398236380
C         5.78004204015074    3.01993763981595    8.48419320544671
H         5.78911650088567    2.23773812927802    9.22928219732169
C         4.57740280629221    3.54776834974594    8.04293883705636
H         3.64492324443027    3.17449935714808    8.43940639897539
C         4.57367339398823    4.55445999150399    7.09261760032943
H         3.63823538919483    4.97075507408384    6.74918581364296
C         5.76523949270995    5.02798038230709    6.57366993244111
H         5.75699134335277    5.81144960805966    5.82941371352988
C         6.87365041572038    6.83705474240982    9.28624950842666
C         5.95899753778950    6.04452131165381    9.96718610370349
H         6.29924625790962    5.24403280955502   10.60732101474574
C         4.60306247452509    6.27482028752993    9.81423157779959
H         3.89454741448107    5.66061104283436   10.35041074135969
C         4.15295568623841    7.28368567841612    8.97972902637814
H         3.09294232043589    7.45827532337526    8.86831566829677
C         5.06246894521763    8.06401510971814    8.28428036382030
H         4.71468477024120    8.84725909044722    7.62700990962472
C         6.41822746079239    7.84192099988498    8.43384154373050
H         7.13872768981071    8.45234816606116    7.90586561373463
C         8.98558633888833    5.17491921134786   10.42205677707637
C         9.73730516034184    4.14760938267408    9.86530226761950
H        10.11901005759655    4.26188586708697    8.85474963620982
C        10.01576424933877    3.00819396471528   10.59846441787244
H        10.60266833917959    2.21455953008307   10.16022978593863
C         9.54720802574264    2.89485299849272   11.89687157836173
H         9.76164574950116    2.00701125750939   12.47295448936165
C         8.81927661795525    3.92832224172576   12.46703411246588
H         8.47272895029876    3.84567741645235   13.48684006428907
C         8.54334947030143    5.07020515292284   11.73795489839699
H         7.99988976438270    5.88946619083177   12.18975733041257
C         9.14799561826420    7.96184228396501   10.60122789545821
C         8.39102543522764    9.10858091720352   10.80567199546541
H         7.44621468632847    9.23266294466055   10.29734729463835
C         8.85619470906246   10.09741754476688   11.65553311503917
H         8.26651901559364   10.98927550446217   11.80989071895218
C        10.07400771246155    9.95128086524593   12.29861209267284
H        10.43575259818557   10.72973273144440   12.95433017848202
C        10.83106424597431    8.80736852770219   12.09671850299843
H        11.78295825121852    8.69003367454794   12.59329227114340
C        10.37325015135720    7.81627295181695   11.25029007241748
H        10.97047371393938    6.93041054551693   11.07737865372884

