58
CSD_code = DILXUR | q = 0 | S = 0 | Stoichiometry = C25H24I2MoNO4P | MND = 7
I        14.35653219818204   -4.24022732905385    4.26785399290020
Mo       14.02683042280891   -1.47935392808384    4.64005607978163
I        15.41264263077640   -0.80807441869963    2.29567083267981
P        13.97987529128174    0.90901700206455    4.71438376590459
O        13.32063206469791    1.57925812877594    6.04499137885666
C        12.06801709495941    1.31961444226053    6.54663655923054
C        11.92197744711732    1.30612298748160    7.92914930323631
H        12.79104217803817    1.45553382241232    8.55184469000672
C        10.66927674950208    1.11967161875472    8.48432314388591
H        10.55866606702001    1.11012299472550    9.55837455521112
C         9.56252517745597    0.94966591016959    7.66873329166322
H         8.58580510159374    0.80711912670175    8.10493949600114
C         9.71296815407609    0.96556711812688    6.29260323408714
H         8.85450242476674    0.83626256912260    5.65128174034011
C        10.96272040954351    1.14700946821069    5.72523834173535
H        11.08112701420155    1.16621336192679    4.65151920754112
O        13.22001142574010    1.58080209845383    3.48422026786072
C        13.43911274536005    2.90612279420620    3.09138031082126
C        13.01630020018687    5.24493028421641    3.32735212136768
H        12.53581398434080    6.05921348441317    3.84874950004596
C        12.82072339426117    3.94590838212469    3.76520936471831
H        12.19118534735805    3.73835227402162    4.61798261789874
C        13.82299971152640    5.49807113688820    2.23132432665049
H        13.97289095947079    6.51308885276734    1.89563913710525
C        14.43756195447509    4.44961563341577    1.56690592454088
H        15.06794715383969    4.64211997505549    0.71237286803839
C        14.25113849137628    3.14717676801290    1.99525355286999
H        14.72263747234311    2.31722153588539    1.49130694585408
O        15.30974778742854    1.79463500869378    4.69013813017609
C        16.45731748695002    1.46667339598395    5.37908343863221
C        17.65785222173837    1.47055989844600    4.68201061843304
H        17.65347143399202    1.69291903594490    3.62633075684317
C        18.83186717762678    1.18246592316168    5.35428628626758
H        19.76704460158625    1.18724970959122    4.81544272447880
C        18.80912595524642    0.88751027207068    6.70801638946279
H        19.72907322713198    0.66687526814420    7.22875490999308
C        17.60660663408963    0.88099400178484    7.39441919706727
H        17.58553641159330    0.65534991572547    8.45068700939094
C        16.42562641244792    1.17027037837765    6.73290175526182
H        15.47999145768130    1.18764105560576    7.25384538407047
C        12.31173524316009   -1.45134140588612    3.73623026498831
O        11.24099417164671   -1.40439582978079    3.31894411876461
N        15.91509001188938   -1.59946119801265    5.39103048328098
C        16.99019180362484   -1.94580136303325    5.61288667885601
C        18.31669147003883   -2.41216029608752    5.86539165760836
H        18.99873109445238   -1.96087974195221    5.14477972204056
H        18.34087890355278   -3.49751293100299    5.75357816902494
H        18.62486790974749   -2.14100923602646    6.87431670991977
C        13.94860290138137   -1.71259899490099    8.04344234629689
H        13.16013019370408   -1.35023457519127    8.70791587067739
H        14.87453075336610   -1.17544188966681    8.25279263327387
H        14.11818317373790   -2.77128545592852    8.25741126516681
C        13.53903628440798   -1.57638142927000    6.62648956665001
C        12.41643782884971   -1.69622926882895    5.95563787694483
C        11.02617129612476   -2.10471145934172    6.24045176582985
H        10.70444690001985   -1.71544011091582    7.20881044238089
H        10.99572771221535   -3.19790811542328    6.27608069753465
H        10.32362827420695   -1.77729665663643    5.47389657984970

