57
CSD_code = DILYUV | q = 1 | S = 0 | Stoichiometry = C24H22F6N2OPRu(1+) | MND = 8
C         1.02538240759029    7.53254537576829   13.95287862421319
H         1.63946984567797    6.74090430232818   14.35847886533924
C         1.50075178874149    8.79602374227704   13.48018001780324
H         2.53182369218088    9.12305778540145   13.50406164149528
C         0.37767128162736    9.61684443478461   13.23422657212789
H         0.39871827390750   10.67143673959291   12.99443904505818
C        -0.80010402969669    8.85920143388252   13.51242737345708
H        -1.79350426830163    9.27313864127924   13.62480951947433
C        -0.38184433923314    7.58565857015006   13.99313013398588
H        -1.03131322093963    6.82326393075148   14.40221017153169
C        -2.60062657128952    9.26953790096328   10.29503404581125
H        -2.39523437232873    8.68561963650724   11.21706391743319
C        -2.75101190177506   10.74115982548766   10.72034245309600
C        -3.87689323207838    8.70380468115665    9.64722684604560
C         0.55043171745879    8.02226658175731    8.39420281186910
C        -0.24378784409051    7.00888101424768    7.86621560453517
H        -1.23276993898179    6.83837582712124    8.26588563477852
C         1.49369709585049    6.47117155034343    6.29956850864054
H         1.85564660533460    5.87473752715440    5.47615194331207
C         2.29363148267027    7.46691593901226    6.83764557540302
H         3.27847542425469    7.64721914775995    6.43332677450855
C         1.82721584131900    8.24015090211264    7.88592692795285
H         2.44335549393535    9.02399114769708    8.30446645099454
C         0.71828733151828   10.59629864773659    9.57410092988791
C         0.17029426725235   11.45994632225945    8.63154276579891
H        -0.70988016298298   11.16730066078824    8.07786202766720
C         0.76019704029448   12.69217488582238    8.41637001090122
H         0.33354463633316   13.36993052455660    7.69327637096425
C         1.89508888075314   13.05571870660548    9.12499774843967
H         2.34922702446487   14.01956022142768    8.95432631965259
C         2.44982811731794   12.18633354243132   10.05124742396561
H         3.33667503660162   12.47070723281357   10.59700753376967
C         1.86050934330225   10.95613289848127   10.27966306114658
H         2.27796190417442   10.26192375026945   10.99949795641376
C         2.69891864198112    6.33886841774512   10.58822904957682
C         3.82961781712072    5.65844395452460   10.04457679774856
H         3.75122354775779    5.64272417844166    8.95705492144232
H         3.86661266195210    4.63499270287596   10.41839129214800
H         4.74606734720972    6.17481902029824   10.33078331307058
C         0.22664909762215    6.24443200503300    6.81383379840053
H        -0.39638447924882    5.47163900713024    6.39003540946867
C        -1.60454618340210    5.57882707147673   10.95253797016446
C        -2.50505357621973    4.52809710397264   10.60829374785191
H        -1.96468677590957    3.73630006433628   10.08913126786562
H        -3.28846250746904    4.91631032745934    9.95647166968469
H        -2.96000445911407    4.11679811222744   11.50941070080845
F        -1.59957832909665   11.12826927695613   11.29433499289509
F        -2.98479962880708   11.55614254509284    9.70457385566619
F        -3.71079789881574   10.90326955345709   11.62640890280429
F        -3.67091983842409    7.41325191356656    9.33858912406284
F        -4.91161658009155    8.73634449180250   10.48316791762753
F        -4.21459040355490    9.33126042621149    8.53375879280305
N         1.77865484345175    6.89822842559677   10.99897392284189
N        -0.88176137275091    6.44498684906135   11.19604417752854
O        -1.57002758105835    9.13784030885453    9.37327209755851
P        -0.00061944759102    8.95659168988987    9.84952093190460
Ru        0.30549045358650    7.84162852325779   11.84591373860589

