85
CSD_code = DILZEG | q = 1 | S = 0 | Stoichiometry = C31H22F24NO4P2Ru(1+) | MND = 8
C         7.03302178082806   10.20876945692954   18.67635254346101
C         7.35236172654920   11.70938865889858   18.77159759695494
H         6.81101773678318   12.20684512732627   17.94969098103518
C         6.88983940838503   12.32115850470661   20.11578529886489
C        10.67824597389644   14.59616905298134   19.23139792997226
C        11.13557958275837   13.12193518129798   19.22630698635374
H        10.56916089156046   12.60057577705823   20.00702241385352
C        12.64487538100998   13.01067599454752   19.54392887754179
C        10.28806143425133    9.94395527062191   17.84100786217808
C        10.68271727094037    9.62002568121100   19.13546025648394
H        10.66632435517431   10.36037773593887   19.92066255712271
C        11.08640983829437    8.32977141183649   19.42583613894559
H        11.40276705970068    8.08442106759818   20.42712135852891
C        11.07569978670251    7.35780364937697   18.43872827776503
H        11.38568569034205    6.35119158723192   18.67111507357938
C        10.66265572156602    7.67512253450211   17.15446289993249
H        10.64892397710974    6.91757796585622   16.38639969055344
C        10.27633706807086    8.96770002291302   16.85174611491944
H         9.96687159301567    9.23248029859096   15.84975136975984
C        10.29626734910970   12.04966574974635   11.11615819724615
C        10.16611931755632   10.98712152756950   12.22580442812319
H         9.18799096822857   11.15165236236363   12.71408419669181
C        10.19357586536898    9.54594007591719   11.67258905967353
C        14.19586260782650   10.82831354878068   16.28817284334656
C        13.23667253709199   10.50630623185158   15.12248698068436
H        13.61634939935988   11.00385532506307   14.21743753682570
C        13.19695083998124    8.98605754652917   14.84530418578569
C        12.34648262802127   13.27894058655118   14.22438887241502
C        13.13969032036124   13.34232736778620   13.08286065824008
H        13.01702111688709   12.62945612526956   12.28073498159706
C        14.09823880598585   14.33625804096764   12.97849582786992
H        14.71418117628476   14.38760215002771   12.09414941796868
C        14.26721402436877   15.25669568572791   14.00032342533838
H        15.01603906295780   16.02773519244929   13.90837165060804
C        13.48123614154203   15.18753655365820   15.14082173563607
H        13.61716390761730   15.89503576855989   15.94301347400095
C        12.51940867861758   14.20220107491768   15.25138885153283
H        11.90837531801351   14.12125783581212   16.13804439168576
C         9.01648195355161   14.65649154921614   15.66185604957858
H         9.69214713520487   15.34676835190579   16.14442940519825
C         8.97974561210956   14.38443959135293   14.26920852639765
H         9.67550053079908   14.76948471422624   13.53712571080794
C         7.80318813711981   13.64824012215775   13.98709198583234
H         7.41648034569076   13.42814504226193   13.00079203431406
C         7.07775927314587   13.50368785032857   15.21111913832251
H         6.06392919655833   13.13296456712714   15.29424193370169
C         7.81826922600186   14.14207251804416   16.23288689105859
H         7.47971012133797   14.34985962740192   17.23806015261023
C         7.63486764705150    9.76291636204998   14.58868945079232
C         6.91928011071894    8.58369524416121   14.24480089245263
H         6.19834046501081    8.79244174684866   13.45438728278452
H         6.39287021731407    8.20978334101157   15.12308222567384
H         7.62244073402925    7.82628688501323   13.89697989961123
F         7.43366249289703    9.76851976088033   17.46576014236301
F         5.73151514562836    9.96386252648871   18.75003477022793
F         7.65665158337604    9.48442786938982   19.58948610019054
F         5.63390929541081   12.01291741045083   20.40696942922651
F         7.66863738802724   11.91477499493089   21.11159858257832
F         6.97709939278099   13.64871579594954   20.04793004604500
F         9.42273931870042   14.66669473481509   18.76908950940222
F        10.68830938136105   15.12798883227723   20.44182869537532
F        11.41894793239867   15.35694955358904   18.42733297875711
F        12.95312910408233   11.76388121194279   19.88836524574147
F        13.38355530327043   13.34578741016031   18.49255978086677
F        12.98947418520166   13.80172052487038   20.55579940547137
F        10.39349676975544   13.25221871210639   11.70661168548563
F         9.22015572728715   12.08527145916082   10.33935692684431
F        11.36735785555544   11.88689327096812   10.35856417941599
F         9.39289695854246    9.40974181261062   10.61853907031796
F        11.41068291008529    9.16528089999982   11.33144640193664
F         9.73901853701567    8.70582421338881   12.61128483895000
F        14.53309019403290   12.11790474168255   16.25218399957962
F        13.62023178495513   10.59217514773293   17.46220324177353
F        15.31716811424587   10.12037226964732   16.22114181536370
F        12.05887294395655    8.66066696520882   14.22937770366743
F        14.19956799543380    8.62394495203911   14.05237360442275
F        13.26876452562788    8.25626288518291   15.95324014078450
N         8.25887645981678   10.68960385996005   14.87973957912721
O         8.72187492387866   11.93615363570953   18.71735147657343
O        10.91712706851959   12.60729383747670   17.93576593128490
O        11.21737757532098   11.11983700117493   13.12531528592880
O        11.95307190025263   10.96045918618874   15.47910016555592
P         9.72111104535552   11.62360215763861   17.43334382651312
P        11.10990680394914   11.98544786872199   14.52692598836372
Ru        9.04051233554596   12.42402325591493   15.38572293028804

