91
CSD_code = DILZOQ | q = 1 | S = 0 | Stoichiometry = C39H28F18NO2P2Ru(1+) | MND = 8
H        -7.89169144570378   -5.79145368573682  -25.41497470615231
H        -9.38944518238470   -3.92718613004583  -26.60497152429906
H       -11.17018941762120   -3.01607425118570  -24.80175715868826
H       -10.76876769471916   -4.33089857595486  -22.51991606773019
H        -8.73124387345051   -6.04480472429624  -22.88468569378134
H       -10.31857956780307   -1.18055099004667  -26.88634532069657
H       -12.61259471461751   -0.32937908808851  -27.07074626870106
H       -13.62655533013558    0.91483511357499  -25.19631544698036
H       -12.33004849943553    1.29954032225756  -23.12963438852755
H       -10.01675203196256    0.47835661385082  -22.95552730765536
H        -8.65839424526470    1.92209687500563  -24.39102900189053
H        -7.14867268126365    3.59323055771942  -23.42046683509350
H        -4.95419700810851    2.92051494056512  -22.52287297845130
H        -4.27686953406816    0.54458901215646  -22.57017699248146
H        -5.80268633711360   -1.14980470045471  -23.52080507776509
H        -7.24107954661309    0.29991925172027  -21.20082776189535
H        -8.65675623189858    2.12738243630061  -20.39593079355199
H       -11.02480894600670    1.71626924786488  -19.83289505068270
H       -11.98378082713799   -0.54223796792529  -20.13786645667807
H       -10.57352740359583   -2.37689482304543  -20.94458656693896
H        -5.65890742648778   -4.21019005084372  -22.22753910060750
H        -3.30510906728373   -4.31315017122019  -21.48349714356597
H        -2.45819404013396   -2.65739872186789  -19.86019752481962
H        -3.97259902920658   -0.93159014391220  -18.96434742698826
H        -6.30607426579764   -0.83683818223537  -19.67341363638933
H        -4.22902555544949   -4.25449047657770  -26.47536307430946
H        -3.73150125304271   -4.86491114423620  -24.88241909640571
H        -3.44227559088458   -3.16435728791235  -25.31426055579480
C        -8.62059729370155   -5.16045796850450  -24.92295540666660
C        -9.38599333594486   -4.14572226276146  -25.54698060886447
C       -10.33679260695521   -3.67257787121874  -24.59141998899509
C       -10.11651279093274   -4.35613915886422  -23.38065998634714
C        -9.03096639225039   -5.26942912307099  -23.57519484861558
C        -7.21037268332971   -0.66474957177575  -27.34642546320725
C        -5.71162277567173   -1.07535713438088  -27.39596477780829
C        -7.90759668141958   -1.17878726691970  -28.64799420260111
C        -7.30241653850463    0.88230594728359  -27.31039818787792
C       -10.00076281402658   -0.36301251447236  -24.92659411709394
C       -10.74809421907675   -0.61570191832263  -26.07339277353516
C       -12.04495241129863   -0.14568298226319  -26.17172205624718
C       -12.61398024837995    0.55089506720515  -25.11733617378105
C       -11.88585779142891    0.77015217659357  -23.95855180077882
C       -10.58468473543017    0.31296170462917  -23.85778494944059
C        -7.31659026485101    0.27823831639951  -24.03355810581189
C        -7.70379889538616    1.61472465048664  -23.99195415887849
C        -6.84917869802364    2.55694755235378  -23.44650544888082
C        -5.61582203284556    2.17816368968117  -22.94162083009731
C        -5.23259118851687    0.84569648314159  -22.97092693349057
C        -6.08350293209282   -0.10306066998411  -23.50648089756977
C        -8.50154041271395   -4.42421568442582  -19.58228435951615
C        -8.73761658456581   -3.40147215409660  -18.43953724334767
C        -7.18474110820586   -5.20776489788020  -19.29596522613402
C        -9.68475082784703   -5.44344175463113  -19.57738733818187
C        -8.79206889257341   -1.18204738936178  -21.06433851102180
C        -8.26839546024271    0.10253110024214  -20.94200715546904
C        -9.07498877378045    1.13784738874942  -20.50025224005528
C       -10.40624684424430    0.90838714256518  -20.19175408462663
C       -10.94391760491746   -0.35825403646135  -20.35794750386935
C       -10.14586472833195   -1.39434193938835  -20.80597745434648
C        -6.12921211077951   -2.49542774459889  -21.03512773812419
C        -5.27078703889084   -3.47713504615636  -21.53142914878052
C        -3.95722170753584   -3.53924486548639  -21.10842460440076
C        -3.48377301506203   -2.61323408601131  -20.19233508103350
C        -4.33393834991510   -1.64187335167030  -19.69171830986092
C        -5.65405274494113   -1.57785621382219  -20.10408380726115
C        -5.40440059557697   -3.64606386369491  -24.88392514046795
C        -4.13017395177831   -4.00369362262936  -25.41901082234317
N        -6.40571108247355   -3.32630097853004  -24.40727556811011
O        -7.79840723110421   -1.33108937665981  -26.28186384411320
O        -8.50056145239407   -3.89707766043974  -20.86778503881625
F        -5.15877168946421   -0.96280700594075  -26.18711366357331
F        -5.00161077865215   -0.33971146430049  -28.23649420805523
F        -5.58204362108328   -2.35228568302877  -27.75273095468711
F        -7.13026767186710   -1.06049837522198  -29.71385539013530
F        -8.22797094376998   -2.46188688198956  -28.51293676368859
F        -9.03457658787976   -0.51420992306428  -28.88093352359603
F        -7.17590518553523    1.40163533636555  -28.52386353420230
F        -6.34671704064161    1.41113789033418  -26.54908321444143
F        -8.47324068618193    1.27111774423207  -26.81632162600937
F        -7.99170910643992   -2.31298155477569  -18.61155605832692
F        -8.42659484333982   -3.92174560412872  -17.25972526983439
F       -10.00537316881283   -3.00694863651730  -18.38873399821126
F        -7.36569435086966   -6.17686925431452  -18.41000638564429
F        -6.22992205389272   -4.40701875524092  -18.82767382128366
F        -6.73191719215773   -5.76086032190026  -20.41697672340312
F        -9.38924702739711   -6.49978718280591  -20.32754334655274
F       -10.76977618178153   -4.88122383875344  -20.10397777456933
F        -9.99447952739470   -5.86484189785585  -18.36252877015898
P        -8.34504288607129   -1.06379893683711  -24.70386173113633
P        -7.82782224663950   -2.59056750284436  -21.69716622710596
Ru       -8.26303261502381   -3.18800951767567  -23.87629612139360

