47
CSD_code = DIMCUX | q = 0 | S = 0 | Stoichiometry = C11H24I2MoO7P2 | MND = 7
Mo        7.14209165458728    3.91586374749384    7.26059856670085
C         7.70138177513478    2.08125567956580    4.43139674379460
H         8.15937816657653    1.15479855983324    4.78310641203321
H         8.48334644512792    2.69878547239134    3.98876679175711
H         6.95968851546871    1.83857477147336    3.66544559443489
C         7.07055525137357    2.78160352414503    5.56712034902357
C         5.83225169796793    2.93248316237281    5.99309890074901
C         4.48959620106694    2.46680241958397    5.59147778943338
H         3.79938627588805    3.30590522119960    5.48418555640183
H         4.07725627693660    1.80143769632996    6.35364382262569
H         4.54544457001411    1.92813155381481    4.64266927188462
C         5.27404069592655    4.10916660086107    7.70635462079740
O         4.13703705413989    4.17033740043068    7.88928994252957
I         7.52745947366277    1.90960388446246    9.15187415612909
I         7.87297627403334    5.93825713058067    9.07751236015708
P         7.10012308949017    5.90530249501132    5.90624436429672
O         6.51044100051578    5.39220831816328    4.50586763754062
C         6.35277985286680    6.27924973910649    3.40011310204050
H         6.09019750895286    7.28266580768242    3.74039780454858
H         5.55130401791852    5.87394632955289    2.78246329088739
H         7.27781115492351    6.32456192218870    2.82490017995495
O         8.34770855471681    6.73982550832818    5.35953562603905
C         9.20002080383231    7.54667141784851    6.15762660650124
H         8.62505545354266    8.18425926799378    6.83078780665399
H         9.76841981353466    8.16624104907976    5.46352027188967
H         9.88819724666111    6.92939377499719    6.73959760698868
O         6.20440572911014    7.20196374935047    6.27665794857544
C         4.95507614653700    7.15631828702990    6.94174155409416
H         4.55434686033569    8.16909322693323    6.90265097443812
H         5.07838349350693    6.86426407877081    7.98730710776656
H         4.26404010407922    6.47252099356488    6.44513414790562
P         9.48800721982681    3.67697856946560    6.87146040481454
O         9.81537185276203    2.11095559443616    6.63754126158704
C        11.10706687988796    1.54211594503573    6.48512382094211
H        11.24814376023759    1.23686685544066    5.44592199793195
H        11.15702051627749    0.66207979029433    7.12883374787349
H        11.89680789736529    2.24223703472237    6.76542303794023
O         9.84824189301490    4.43102614180315    5.50293908516616
C        11.14828456008722    4.64654981553897    4.96447992910720
H        11.05667551562955    5.48466150406014    4.27347748733731
H        11.49147395324101    3.76328002634779    4.42171339926452
H        11.86342256310173    4.89630658034803    5.74815400020220
O        10.75403830099222    4.17498965298791    7.74854018796439
C        10.95188333157217    3.72526654268662    9.08649035397351
H        12.00104984127170    3.90770899924848    9.31779740385962
H        10.73135997382210    2.66107776881487    9.18858324550781
H        10.32765078246718    4.29220638863144    9.78003372799234

