67
CSD_code = DIMKOZ | q = 0 | S = 0 | Stoichiometry = C27H29N4S6V | MND = 7
V         2.57804666481446    8.86076965526907    2.88905113859036
S         3.67588301350942   10.46546044391424    1.33995021631938
S         3.22098617570570    7.47222795204484    0.87341224993597
S         0.76712041486455    9.01232195470219    4.54871273668594
S         0.56015836898831    9.59462309423879    1.72450045262100
S         1.47679479227450    6.62438914212010    2.93140910055185
S         2.82194258676625   11.10394233369305    3.95991513768653
N         3.83924911453011    8.30791055496086    3.71450732725979
C         2.17400337005829    6.29423149121937    1.43989582246594
N         1.88995411760815    5.16570263365406    0.73799858245569
C         2.40339698935530    4.83473084470446   -0.49807660362932
H         3.09590584730084    5.48801199748885   -0.98979294882063
C         1.87719371359963    3.64223790272604   -0.87267323477698
H         2.07752988904867    3.11579638029821   -1.78430707977263
C         1.00482507742569    3.21400559927924    0.16911166569982
H         0.43220963427601    2.30826225871464    0.18093340589515
C         1.03307189499749    4.16232738983163    1.13818949446944
H         0.52570311087796    4.22493026573536    2.08007900511435
C         3.51390516443099   11.63866958682184    2.52355666245574
N         3.90469768049483   12.92681043528747    2.33780359944608
C         4.48337271339528   13.43406632103998    1.19362221351493
H         4.65581974012607   12.80119866659784    0.34629615537212
C         4.73742447711042   14.75129227274172    1.39220021027318
H         5.18342900585328   15.42717884616639    0.69033018733299
C         4.30211773812313   15.07602538182608    2.70943517695986
H         4.36246168227310   16.03958393706329    3.17442980564073
C         3.79975313182959   13.94414445145100    3.26237956591889
H         3.37501227883999   13.75722037383029    4.22823448929306
C        -0.16140517534730    9.51060628752384    3.22793722192911
N        -1.47745762302798    9.83282210203006    3.40205744609872
C        -2.16470527023693    9.79632857196583    4.59432350560156
H        -1.67098538208786    9.49906667878023    5.49793142217261
C        -3.44558264508175   10.17972324460667    4.36164222081244
H        -4.22934929695595   10.25436809093243    5.08881774614168
C        -3.55878507161297   10.46532798889597    2.97251122293499
H        -4.44245938785980   10.79386810555181    2.46277165725226
C        -2.34234936984540   10.24489394803512    2.41314769602971
H        -2.01054360722197   10.34277303296721    1.39855194869516
C         4.85110160053938    7.73940351591895    4.35268071935814
C         4.62409143925629    7.05568411148583    5.58106497951729
C         5.68676502792876    6.42198063498981    6.19637305928413
H         5.53042076989533    5.89841100796993    7.12564708829241
C         6.95613325648695    6.44845207059721    5.64266029932900
H         7.77039334060584    5.94252061345873    6.13963929161158
C         7.18844144598267    7.13729668066290    4.46411311669643
H         8.18694589321738    7.16621876957118    4.05833046542786
C         6.16320253287386    7.78820309298932    3.80492053295220
C         3.24980627021640    7.11584863003827    6.19458029260902
H         2.51707861652752    7.07574474725743    5.37889230173684
C         3.10214990733295    8.46964684588942    6.90180966060038
H         3.25868381269954    9.28391656054584    6.19341200703174
H         3.83241069272511    8.55690678222319    7.70414724337182
H         2.10400960747499    8.56371286275547    7.32186016415262
C         2.94836290192719    5.97374335859132    7.16113843743583
H         1.89554116748241    6.00109143375767    7.43100086358056
H         3.53026661665188    6.06507339348407    8.07530934207968
H         3.15878308362396    5.01200631550947    6.69944616242309
C         6.40046827545962    8.62161933423265    2.57208598090176
H         5.48353373102201    8.59615564960686    1.96961235184269
C         6.64282140263009   10.06899929258904    3.02089265475250
H         6.74829096377575   10.71978120335625    2.15583351690700
H         7.55029128211133   10.13019214835033    3.61850359204087
H         5.80617551341254   10.41853675757869    3.62682261368027
C         7.55324553618196    8.12819685961049    1.70154942274949
H         7.54749755438682    8.66659179745018    0.75697224078049
H         7.44636102059697    7.06669698343159    1.49209642001851
H         8.51448117783836    8.30081832757100    2.17970855610370

