36
CSD_code = DIMMET | q = 0 | S = 0 | Stoichiometry = C15H11ClF3N5Pt | MND = 4
Pt        3.39426071022182    3.52703739199572    7.88869136107864
Cl        2.87911841619178    2.24692662633465    6.15584159333096
N         1.64805616724043    3.38002653811226    8.86033587575772
N         3.80049160379827    4.62926517351273    9.40328168573679
N         5.24739770055949    4.01074178092707    7.39642298794170
N         6.13417101878352    3.80361156815358    6.45035033905160
N         7.06030703440569    5.14311011514399    7.98947708753491
C         0.56634783009082    2.69504310991194    8.49744730500788
H         0.64654069201639    2.15874651545189    7.55949984335786
C        -0.58482074327938    2.66575791639652    9.25915243413735
H        -1.43528268554793    2.09590979355047    8.92079081855980
C        -0.63987256335874    3.37348779775723   10.45955506067272
C         0.49305256967116    4.08741860442967   10.83119706718757
H         0.49665925614695    4.65077156753091   11.75085198552670
C         1.62481500272057    4.08227410129368   10.02593962635965
C         2.86114649603964    4.80543780595839   10.34072473683919
C         3.14127672508390    5.60528078428464   11.44419885796521
H         2.40005129129824    5.76191537377871   12.21116405079573
C         4.39376829852265    6.20934660903528   11.55629928373837
C         5.34520116367057    5.99849138348484   10.55705781222562
H         6.32379146153800    6.44655434956358   10.60759142509312
C         5.01680968600939    5.19317960508923    9.47751062952887
C         5.81608919596845    4.82805440059486    8.33287059193242
C         7.20865989910063    4.48954733570606    6.82788191703035
C         8.47020794733761    4.54728386989525    6.04265229753171
C        -1.85746351041771    3.34541140729932   11.31949226475993
H        -1.89580115669914    4.21086845289581   11.97512924247936
H        -1.84427524607204    2.44931080433464   11.94000235526184
H        -2.75801819596566    3.31401623738374   10.71162146572998
C         4.72665860096550    7.07552914747066   12.72607841786172
H         3.89591070123374    7.13576836220541   13.42358269605046
H         4.97547860447312    8.08004102996311   12.38762981301958
H         5.59719120069315    6.68142403573302   13.24765799459049
F         8.72662739875900    5.78756002989932    5.58536095165355
F         8.45762927270623    3.74371096762665    4.97672871185556
F         9.54121815609442    4.19643940729529    6.77672941281496

