50
CSD_code = DINBIN | q = 0 | S = 0 | Stoichiometry = C20H14CdN6O9 | MND = 5
Cd        2.84155518572338    3.57939414067277   10.06625274479966
C         4.63686290107404    5.86361409374685   10.10077935981317
C         5.69614384757988    6.49275047057246    9.47649128808390
C         3.43863461142801    6.39731168801816   10.85221480470680
C         6.17774183798591    7.90362621678031    9.42750353958722
C         5.73748456056238    4.33745981886718    9.03571921848448
C         6.03918443287748    3.02392878266244    8.49248072272536
C         6.71878596094316    2.84846774282688    7.28803900105612
H         7.07365422757482    3.69793567678734    6.72672661964170
C         6.87964113483618    1.56142665725630    6.80522620657642
H         7.36953456728178    1.38922381133973    5.85947681152645
C         6.39597311876043    0.50019339145113    7.55413024954170
H         6.50289540847220   -0.51719695584525    7.21405888700432
C         5.75144699645764    0.78077156244526    8.75058580587886
H         5.37575594233362   -0.01718872332503    9.37885563235611
C         2.75653306287740    1.33420258793657    8.13094755571827
C         2.75543645437571   -0.04402489393992    8.01859765681118
C         3.08970624660344    2.46922857981139    7.17782622088374
C         3.08016128283872   -0.96920172444400    6.89665276962852
C         2.34858183878872    0.53522778877307   10.10120288431904
C         2.13497216437115    0.62271541796678   11.53472945226922
C         1.79582745069923   -0.45520238983528   12.34886636762393
H         1.66992606322096   -1.44260061112157   11.93297742922633
C         1.61089200260210   -0.22594474330348   13.70314834112688
H         1.34542166410010   -1.03916400664880   14.36168261330016
C         1.76675764993731    1.06032522274156   14.19388193648905
H         1.62641294168919    1.27627117968452   15.24060222582221
C         2.10968602805270    2.07449061066718   13.30616690878732
H         2.24165872788025    3.09452941566555   13.64163060799594
N         4.70096698439685    4.53832717650349    9.82980729764040
N         5.55285715949045    2.00442622869383    9.20691281486082
N         6.36874852595326    5.50628375804936    8.80748685260995
H         7.19428989626939    5.69195389030338    8.25455968130121
N         2.50157352633185    1.64853017577273    9.41240239770350
N         2.29402159916329    1.86622409715134   12.01628033029385
N         2.48141556051252   -0.52409144438976    9.27366625179333
H         2.42346817554329   -1.51363431581737    9.47217772479916
O         5.47823596627675    8.78413351872751   10.09240379924730
H         4.65278936208899    8.40307860449353   10.56060448953098
O         7.17703706279249    8.15903538885639    8.79626236606153
O         3.42846138005475    7.59465077323495   11.15259423152590
O         2.52563703611796    5.55859645614879   11.06599931602178
O         3.48485839470114    2.15200698220345    6.04583227508533
H         3.45510204257115    0.62387106321810    5.79224397116392
O         2.96118823559760    3.61286551343673    7.65760168510155
O         3.43462642610943   -0.40960298156067    5.77257916613683
O         3.03754998852834   -2.16354385177147    7.08768857954592
O         0.68653729331192    4.24911823687424    9.43028808900000
H         0.70548775523264    5.05906736245569    9.96332222514602
H         0.92997931701452    4.51133255911835    8.53023259364604

