45
CSD_code = DINNAP | q = 0 | S = 0 | Stoichiometry = C4H22B18Ni | MND = 10
Ni       -1.79953345379266   -2.55781886048673   -4.88514564247210
C        -0.97788355417570   -2.23484242325924   -2.91099750450373
H        -0.62482256624895   -1.20619044004996   -2.84584786985083
C        -0.12987953926557   -3.21069150278623   -3.74862453435515
H         0.77126761751095   -2.81301638949370   -4.21012462881053
B        -2.58805573777044   -2.58949306684221   -2.97547486535207
H        -3.37220047053804   -1.72083034207728   -2.82236740413176
B        -1.63107857741750   -2.96917100847117   -1.51779151992357
H        -1.80006825291023   -2.30877487457944   -0.55874216239222
B        -0.00702549294275   -3.34164828205902   -2.03565353367550
H         0.97021091530780   -2.93621722868250   -1.52227266110352
B        -1.05587066947994   -4.38328670553363   -4.51202179421783
H        -0.65148992745429   -4.93298001956113   -5.46969521627588
B        -2.75402316306076   -4.06835895335006   -3.98584094179191
H        -3.73274186362206   -4.44871607198014   -4.51348796454009
B        -2.74367799535496   -4.15627221074284   -2.20292889950365
H        -3.72463256349967   -4.48709816964487   -1.64431836720567
B        -1.12792365375080   -4.66424880545728   -1.64421998767298
H        -0.97064289447012   -5.34590567525008   -0.69920368769032
B        -0.07481681932685   -4.75448229007063   -3.06593580133593
H         0.88617864841675   -5.41249217634981   -3.22430618818543
B        -1.76278794239225   -5.29963236080049   -3.18005883372555
H        -2.04110298543810   -6.43628152559149   -3.29470558186037
C        -0.90548766444767   -0.84401190915696   -5.85458802665692
H        -0.08673177118270   -0.48182245466021   -5.23353250576979
C        -2.33564988233400   -0.55893854204504   -5.35744664448524
H        -2.43493104659250   -0.00569477501865   -4.42635204463135
B        -0.79907248043131   -2.27420939786832   -6.67046675012599
H         0.22980994526978   -2.85226777709844   -6.68060782001340
B        -0.76795462540080   -0.72132450534426   -7.54941613816275
H         0.25588020029950   -0.36656144446472   -8.00787652800175
B        -1.75346680053737    0.40895102985796   -6.65724814096452
H        -1.45263969762444    1.52117436686458   -6.42224845636790
B        -3.41918209214577   -1.77220113892755   -5.77094317418609
H        -4.41124613974605   -1.92057456515407   -5.15730801398229
B        -2.45933721730008   -2.96351443380847   -6.72950359858475
H        -2.74433738673985   -4.08356025297907   -6.94217177083016
B        -1.77947910443602   -2.05584780162289   -8.10821840311518
H        -1.55912170861584   -2.62774060016225   -9.11220939488808
B        -2.42169708354941   -0.39196141695687   -8.09649265854784
H        -2.65048799100241    0.20471826966215   -9.08341317732036
B        -3.39216130086044   -0.20413751321384   -6.62628418145944
H        -4.28984138039650    0.52885601265605   -6.43049628336674
B        -3.44967977211277   -1.73104143536375   -7.53461418120347
H        -4.40308405843711   -2.05624033207492   -8.14119651675965

