80
CSD_code = DIPBIP | q = 0 | S = 0 | Stoichiometry = C25H42B10N2Zr | MND = 12
Zr        6.02561604755797    5.74169117753553    8.32070039957657
N         6.42214394163616    7.40622371416849    9.41487650075623
N         7.75370436647333    9.15103942109786   10.05180588532607
C         8.78304317144337    7.05142894925228    9.10310314212139
C         8.22637265678570    5.68467827332425    8.40659873740485
C         7.66539693542225    7.98011812157108    9.55011114411600
C         5.26304363252565    8.12007443940671    9.95665536964787
H         4.37730121235592    7.48290888630537    9.72997426343205
C         5.01658221949785    9.50596868309606    9.33607546215970
H         5.85446420944691   10.14481338931428    9.61058289273913
H         4.98833565230246    9.43204399471034    8.24718663322732
C         3.71021059495457   10.09005407864339    9.86474818600705
H         2.87320176155005    9.44294888453657    9.58489892022981
H         3.53667791783482   11.06959006843115    9.41428938932846
C         3.76149178529655   10.22068505034095   11.38403589796866
H         4.55425535202095   10.91978192563156   11.65572742491987
H         2.81627236947781   10.62049162164114   11.75773687176214
C         4.04743845233515    8.86732876640940   12.02794087736495
H         3.21999681729908    8.18278626946260   11.81892719966351
H         4.11947795325004    8.98013336248635   13.11159235929183
C         5.34692584990543    8.28431070608914   11.48361391656702
H         5.55859801731274    7.31734462978706   11.94787664790447
H         6.17975195138037    8.95212567025668   11.70040677948018
C         8.90723474326639    9.96529316267788   10.28460222385279
H         9.85586188656767    9.41707522251079   10.28150133958718
C         8.74531695060561   10.62683900980088   11.65946907254721
H         7.79855284327935   11.17041047598660   11.67938426732949
H         8.70485478155074    9.85122850850918   12.42739557612194
C         9.90107996313507   11.58155005830577   11.93626139554475
H        10.83674170054267   11.01789520176892   11.95744295462530
H         9.76906536459035   12.04876766822133   12.91487955448899
C         9.98234440527872   12.65386946820194   10.85403887060016
H         9.07233832504496   13.25829285871565   10.87459755396488
H        10.82886339208489   13.31622966004463   11.04837133581759
C        10.12958644613634   12.01012178607673    9.47861761582173
H        11.06987689853702   11.45540506836973    9.43664335028632
H        10.16110176736602   12.78249657497249    8.70669430085233
C         8.97117613525730   11.05720069633662    9.20751238202820
H         9.08436630278463   10.59104925053823    8.22618791053739
H         8.02755774548925   11.60720835058900    9.20931347011384
C         5.70523106559562    7.33845942099245    6.42834431446158
H         6.19774653764182    8.30337850647915    6.40420561518864
C         6.20896783394572    6.13284687949121    5.87676561592631
H         7.13239676222084    6.02586546617424    5.32161639716563
C         5.18144150890073    5.16612820990396    5.94212469751265
H         5.21763059155720    4.18276850281492    5.48880755684853
C         4.05038476742554    5.77374535172084    6.51699062234909
H         3.06135508844163    5.34220649413504    6.59031201519922
C         4.37510002905408    7.10195189944718    6.83910699390831
H         3.66856839168666    7.85005757732855    7.17630273292932
C         6.09491388164970    3.85764072344274   10.02231489418005
H         6.94561729810567    3.57218046140528   10.62326404623835
C         5.71203507735724    3.24705885219428    8.80515940079047
H         6.24110134599588    2.44186637652404    8.30877167809638
C         4.41891125313664    3.70028317945927    8.48769351377758
H         3.79041360062799    3.29269012748712    7.70835464721640
C         4.02438531343415    4.64010589691087    9.46060937339206
H         3.03815700280778    5.08438028324402    9.54958475068144
C         5.05871609943997    4.72705662096144   10.42152453604613
H         4.99527059342255    5.23264907648700   11.37675460649892
B         8.88660573973553    5.61035433163567   10.00887555439251
H         8.13120413715100    5.52602407455017   10.91250779882920
B         9.25723461934275    4.36463210575167    8.82251603868732
H         8.76482814363130    3.29554043414339    8.91469210074850
B         9.35467293822459    5.12615693053182    7.24261167997752
H         8.91096577107656    4.55931389139649    6.30199994104660
B         9.06692944518053    6.85389290601460    7.43833537880780
H         8.44775422529270    7.53868553115462    6.70826842266883
B        10.20754668200677    6.76510591803892   10.04056414744102
H        10.37509631219491    7.38073417979941   11.02715947111146
B        10.54008358038990    5.02370519778108    9.86079534202376
H        11.03714481857071    4.39368443437064   10.72073799323243
B        10.84813383291293    4.71819636450386    8.12530545456409
H        11.56811673581877    3.86147321023339    7.76259043244394
B        10.71899251069908    6.26932035698507    7.25520736796462
H        11.34222838602610    6.51782861167052    6.28902032818581
B        10.32301351363166    7.51938991958470    8.45964866414803
H        10.58653745550728    8.65546035786419    8.33548060097953
B        11.44190030204135    6.21442049722700    8.88784708361100
H        12.58504428853784    6.42695773504076    9.06715011562896

