27
CSD_code = DIPDUE | q = 0 | S = 0 | Stoichiometry = C7H14AuCl2NS2 | MND = 4
Au       -0.08196375796258    2.11796499285569   -1.30379317223448
Cl       -0.14784553572907    2.11876803824215   -3.57503342446818
Cl       -2.35115133533726    2.11826116963627   -1.22157434337664
S         2.26500812559421    2.11869707990346   -1.03865946057139
S         0.33306144526464    2.11841517107545    1.02240600594905
N         2.98525438374991    2.11841083707164    1.54316041792670
C         2.00887381698852    2.11844150080332    0.66393605523072
C         4.37665611835571    2.11839956382505    1.07985903420269
H         4.33459513798096    2.11839764979280   -0.01317487365567
C         5.10006685962891    0.84915112592519    1.52118954196598
H         5.23955718402168    0.81079632261154    2.59836697571674
H         6.07907424919014    0.81905005400230    1.05163372785278
H         4.54371387044656   -0.02978858053249    1.20594412266928
C         2.75999150290489    2.11842731895162    2.99508574567413
H         3.75812204067367    2.11845480144785    3.43749364664482
C         2.04299283894756    0.85261427390369    3.45783522269332
H         1.01070970694770    0.83906198235941    3.12377682795052
H         2.05077921253571    0.81823725281647    4.54375026041911
H         2.54655121313542   -0.03310816484437    3.07915856074372
C         5.10010888873394    3.38762677221181    1.52117695792751
H         5.23960084989890    3.42599199064716    2.59835371759750
H         6.07911836524552    3.41768173220844    1.05162292615367
H         4.54379227002866    4.26658286925477    1.20591556868678
C         2.04295054753483    3.38425036601205    3.45774296181450
H         1.01068361478253    3.39776423433708    3.12363087593375
H         2.05068569060808    3.41868823049171    4.54365540916465
H         2.54651269583032    4.26996141498993    3.07904071138856

