31
CSD_code = DIPLIA | q = 0 | S = 0 | Stoichiometry = C10H15Br2CdN3 | MND = 5
Cd       -0.16560251971282    2.58808324916376    3.19401316201116
Br       -0.45379427242044    1.77795949220670    0.82183607093448
Br       -1.71254935178045    3.68003355059546    4.80151144241395
N         1.38284671684108    4.35490487181216    2.45076988451040
N         2.15834824916471    1.90743916696861    3.34449267837497
N         0.01139464932959    0.29653848823530    4.23955426904517
C         1.00801857739008    5.54119249701713    2.00643537927835
H         0.07982088741693    5.93019068454809    2.41082185701526
C         1.74452601729425    6.26566337786015    1.07680914851643
H         1.39661773931104    7.22830123012736    0.73806158627102
C         2.92214712773210    5.71838788663276    0.59385668706884
H         3.51692820861055    6.24618399743461   -0.13664468816537
C         3.32160301652699    4.47684400154940    1.06032023912159
H         4.23024737548641    4.01518837031405    0.70554895187378
C         2.52111626975055    3.82010032727998    1.99358478980516
C         2.88372046954787    2.49706163729777    2.49440532185807
H         3.79977783597928    2.05143047852009    2.08860742658387
C         2.45800959653931    0.59335708408193    3.81674832613018
H         2.73085132217822    0.68133136294401    4.87400194466516
H         3.29998377129623    0.13592418932525    3.27530144192591
C         1.21796468813108   -0.30549587977442    3.67467249711867
H         1.04046803775524   -0.46721457859843    2.60707143644640
H         1.43616066897999   -1.27866779381046    4.14461228362664
C        -1.16065765335138   -0.47560585194599    3.82855456823449
H        -1.11306027704391   -1.50828798672013    4.20128827614958
H        -1.22923654009230   -0.50028920327013    2.74031545012694
H        -2.06044619487878   -0.00251131641928    4.22520199391117
C         0.06566756870448    0.34226756403410    5.69831121766391
H        -0.85879073353406    0.77753012183122    6.07705367033899
H         0.89147293337615    0.97069834071534    6.02906971657307
H         0.18464581549759   -0.66313935999934    6.12741297057890

