38
CSD_code = DIPLOG | q = 0 | S = 0 | Stoichiometry = C13H19Br2CdN3 | MND = 5
Cd        4.57036568923363    1.58782345401148    3.59715364844319
Br        2.51144057900330    2.94449466923485    3.18698613258430
Br        6.21401872188878    2.04564192774767    5.45376072409376
N         3.41947294879707   -0.07481273636499    5.02478348190953
N         5.33677228518303   -0.69228358499588    3.20663522561284
N         6.40267355966617    1.54690261176568    1.74048665269840
C         2.49630655736506    0.23377537601496    5.91581009593430
H         1.91372108075114    1.12465238265633    5.71004091255253
C         2.26907723723859   -0.52645145199299    7.05759298229974
H         1.50692412296917   -0.23428060807108    7.76193091739352
C         3.04725395881730   -1.65277249942420    7.26880229633265
H         2.90670627112014   -2.26412916821840    8.14759870752177
C         4.01564918791001   -1.98111989478198    6.33383882259848
H         4.64505929195321   -2.84800750184010    6.46515382360049
C         4.17381585855499   -1.16206062618502    5.21755250827227
C         5.19715662849342   -1.44087511032848    4.21536445974447
H         5.83428637514388   -2.31592157979618    4.39128829196610
C         6.36939052806299   -0.90961704408391    2.24587716092493
H         5.88748890795776   -1.16636024330927    1.29654688223225
H         7.03937039912984   -1.73453392158788    2.53325823367029
C         7.20217300387259    0.37193920695169    2.08020746025484
H         7.69874494076438    0.57081880225248    3.03468905949815
H         7.97735226674850    0.18473205263989    1.31886188951895
C         7.21511621162327    2.75741858568765    1.91344083642843
H         8.07019409362377    2.73936969468029    1.21671596156487
H         7.60684902795068    2.77634487010953    2.93377052280367
C         6.38177274479369    4.00937027380510    1.66228868140731
H         7.00462010198948    4.89045412541295    1.82333946629761
H         5.55470963079286    4.04687749521054    2.38237931392554
C         5.82559637482537    3.99489239502633    0.24305162753663
H         5.16891070941766    4.85059488750877    0.08496419049602
H         6.64939530340165    4.06197464212650   -0.47302998121043
C         5.05671481560676    2.69694106661162    0.02323451416462
H         4.72213772259942    2.62074692517946   -1.01270355078664
H         4.17091031610372    2.68534768763487    0.66326502465362
C         5.93596833335453    1.49420984910999    0.35285191962492
H         5.35878908397788    0.57835636606978    0.20267956818447
H         6.80189512931008    1.47294662353013   -0.33236846475351

