36
CSD_code = DIPLUM | q = 0 | S = 0 | Stoichiometry = C12H17Br2CdN3O | MND = 5
Cd        7.05836257447686    7.52103956874643    8.57064854901687
Br        7.49426224856937    5.38993153949454    7.29925123928166
Br        5.10606509533376    8.03006151110911   10.03821023469242
N         8.46851566606446    6.71526607959545   10.42622504475324
N         9.34265639405666    8.36880976462461    8.45811097867677
N         7.41452024394161    9.01571058095092    6.40428225050001
C         8.04091614499071    5.90543273128901   11.37622535057281
H         6.97979996379246    5.94599298039323   11.59569474213581
C         8.88673469972339    5.04513422136243   12.06761360817090
H         8.49360180383166    4.39637466223507   12.83370169037543
C        10.23318450632190    5.03714343802365   11.74231454361495
H        10.92012530189415    4.37736159016941   12.25078230073808
C        10.68595993508092    5.88947387181356   10.74793821231513
H        11.72702759429085    5.91011729704115   10.46402406870056
C         9.76726306199782    6.71899653992948   10.10783905695238
C        10.18051794816114    7.61907304200392    9.03621809751663
H        11.24167589716348    7.60259921888949    8.76038824650532
C         9.71882221954483    9.21122733994581    7.36805193977346
H        10.77712136480650    9.08616381828093    7.09199818105019
H         9.55777731764973   10.24848350481329    7.67976179332892
C         8.84705732639116    8.89265032936079    6.14367814958809
H         9.15768429632304    9.55016872860168    5.31549171058348
H         9.04136655117419    7.85570327297809    5.85331461132201
C         6.99717876601436   10.41611168383904    6.51402113042005
H         7.24927099348926   10.96069583547017    5.58833511005270
H         7.50421226395243   10.89105146250430    7.35650020053457
C         5.48472528134776   10.49423653345690    6.74048343773748
H         5.22934105741299   10.01981368408739    7.70169066449522
H         5.15849116342106   11.53541614339352    6.76053804523562
O         4.77824006783178    9.87592364122711    5.69401947624731
C         5.16275947297812    8.52879920931023    5.57184596377985
H         4.59090115396924    8.11578014470927    4.73966969091065
H         4.90831777268220    7.97297040702335    6.49445208021297
C         6.66146900964848    8.41054243021369    5.29900500437591
H         6.89289232738918    8.92606423303527    4.35301315596279
H         6.93378251428974    7.35727896009427    5.20546143987354

