60
CSD_code = DIPNOF | q = 1 | S = 0 | Stoichiometry = C28H27AuN2PS(1+) | MND = 2
Au        5.46347195959843    2.96303034104617    2.35565614039253
N         4.91155036691606    4.82022170058641    1.57787060922648
N         3.80985505864193    6.71649896609356    1.27710197923207
S         2.63366150185659    3.58081820672336    3.39560798632951
P         5.96159149680809    0.93701927014498    3.18723893439909
C         4.73920502487683    6.64022697521836    0.25982968007199
C         5.04783185407906    7.47781511675849   -0.80319229951341
H         4.52592576122807    8.40618298462134   -0.97157408292567
C         6.06021914807217    7.06962375066153   -1.64659718474181
H         6.33017318049570    7.69345808158886   -2.48390606074603
C         6.74701034568967    5.86848784702991   -1.44822555387009
H         7.53024659735812    5.59563040685774   -2.13762171356745
C         6.44596613667458    5.03021310442315   -0.39682016183735
H         6.96820836787462    4.10033762159696   -0.23536914663042
C         5.43021848375011    5.43056918394733    0.46224377593615
C         2.88480641488588    7.79674619098944    1.49676091429291
H         2.98983955984155    8.19420213924399    2.50707199456166
H         1.85539676235509    7.46496667012289    1.34526211081684
H         3.10033624879152    8.59090836510975    0.78638850483350
C         3.95676676662194    5.60732393916259    2.03559136577987
C         3.13723484407923    5.33346648890031    3.24070314013722
H         2.23410364856505    5.94286590561341    3.24990116924821
H         3.71255460929574    5.53256934467178    4.14722603236494
C         1.62435652594421    3.41494414663811    1.89940362780530
H         1.26544341870839    2.39114966758935    1.88581503680167
H         2.23300912792869    3.60747132297164    1.02031098363620
H         0.78272471411535    4.09927798203129    1.95181303468919
C         6.30344615327091    0.95989948392602    4.96412514789829
C         5.34185878313258    1.56778533864834    5.77030496334914
H         4.45145736521363    1.98365993237663    5.31359912586870
C         5.52971021100045    1.62405927963181    7.13723237172423
H         4.78353840885810    2.08654211488439    7.76530124647968
C         6.67879929617990    1.08758175728966    7.70038705793068
H         6.82546946272779    1.13383404917888    8.76852909909307
C         7.63927980670811    0.49545674254748    6.89728194243395
H         8.53327637046028    0.08167777944030    7.33849235369916
C         7.45810212181515    0.42898497376510    5.52606655753387
H         8.20602070295840   -0.03345837624588    4.89709580564420
C         7.38449425899396    0.11085295472812    2.43468822700523
C         8.46086156893529    0.91019259585469    2.05681258880098
H         8.40396262734776    1.98162033378828    2.20831598125657
C         9.58624783869722    0.33239648098351    1.50064188667643
H        10.42359094717106    0.94951977364719    1.21222018778777
C         9.63487895669534   -1.04029415097342    1.31047573194349
H        10.51192124956817   -1.49098431795993    0.87215943715577
C         8.56020876027988   -1.83490807522333    1.67679470065628
H         8.60060053861441   -2.90251965465220    1.52341599695971
C         7.43171042754526   -1.26558306255464    2.23987924848964
H         6.59074854384941   -1.88237760784705    2.52457103436140
C         4.57885641819926   -0.21975008103236    3.02416987973633
C         3.75021722407442   -0.09068227463736    1.91357520975008
H         3.94928654067093    0.69285949927520    1.19220210801883
C         2.68793436734219   -0.95768235756922    1.74012905052995
H         2.04658044928246   -0.86069293224597    0.87686248959623
C         2.44660113287853   -1.95054530204854    2.67695436646358
H         1.61465781034991   -2.62479403072666    2.54359980277557
C         3.26825920611535   -2.07815376521509    3.78567985490915
H         3.07681707119572   -2.85131746239225    4.51410942017207
C         4.33531064204492   -1.21629912728048    3.96451418565738
H         4.97558681275805   -1.30980623170313    4.83102212289848

