177
CSD_code = DIPSIH | q = 0 | S = 0 | Stoichiometry = C68H104N2P2Pt | MND = 4
Pt       15.47068870568514   11.57554460945558   12.05423803414048
P        15.77368715151284    9.47863194655613   11.06889727889556
P        15.76159214741650   13.89133090500172   12.18865173657294
N        17.49943047969006   11.59078873857427   12.01867111676511
C        17.46606014836884    9.30179635677468   11.34687875190345
H        17.98121952790438    8.36792567733043   11.18058509950105
C        17.45267123494786   13.92480685356446   12.51710925243935
H        17.96893820362184   14.83245153795622   12.79065228596543
C        18.19177572262400   10.47822536369886   11.60405548247879
C        19.58726988980710   10.50241235349150   11.50094783893738
H        20.09957603375072    9.59704337024574   11.21272647321512
C        20.28615463196780   11.66514191324247   11.75879571544471
H        21.36385392906828   11.68697282845666   11.68762127003500
C        19.57924404628916   12.80669058598861   12.08379397857176
H        20.08608959786269   13.74296811990818   12.26208586582086
C        18.18425858678965   12.76995060658879   12.18428803286485
C        15.12825159175700    7.77572195333356   11.33094249029362
C        14.71502786718401    7.06404868853445   10.19500463739757
C        14.34110354247145    5.72911910234117   10.28539442494396
C        14.37625025442624    5.05974325657336   11.49211076462847
H        14.11062515904250    4.01533713295189   11.55643724831051
C        14.71931824759715    5.77161588129149   12.62357611860990
C        15.07571156641394    7.11758832773168   12.56982301579672
C        14.56198165089410    7.56222667425121    8.76737438491538
C        14.04188088210168    6.32376106362419    7.99179919747425
H        13.07719904445232    6.53869853795781    7.53532508176354
H        14.72895209952111    6.07664199729819    7.18469000673883
C        13.91072642167892    5.13773461867775    8.96843242129531
C        14.79667307080521    5.20055077026202   14.01615665443178
C        14.88665928813131    6.46360447341048   14.88696143194568
H        15.60383326723281    6.33057403046545   15.69350996928242
H        13.91988092246532    6.66358722777773   15.34577123619749
C        15.29462128329619    7.65170714655075   13.97877677173045
C        13.51219592688600    8.69330352091935    8.74487710745468
H        12.57285323556279    8.28640592345011    9.12731310138837
H        13.82811422666439    9.48245021218612    9.43465537556443
C        13.27528522799040    9.31694125831690    7.37336061994907
H        14.13209188566894    9.90754826216727    7.06186837985379
H        12.40997506764996    9.97675105219798    7.40721963522570
H        13.08711237413527    8.55759052124756    6.61776679513557
C        15.88995882301954    8.05992325005501    8.16871249895098
H        15.75196312729971    8.22790277907037    7.09871691345114
H        16.13871488700720    9.02152347513667    8.62608134419329
C        17.06206327413282    7.10887260532856    8.37254935088096
H        17.16443593296443    6.84565894848564    9.42268457344453
H        17.98450622888061    7.58296774714693    8.04317574671640
H        16.93380360343764    6.19246598211465    7.80130224795219
C        12.46947721211244    4.59961918283526    9.06110430121939
H        12.13445369818994    4.30772067018630    8.06414329239286
H        12.47867361257962    3.70263406436772    9.68461076243081
C        11.46442505740823    5.58516642289459    9.64688473309840
H        11.80122427622163    5.95295089731846   10.61369746015000
H        10.50101612995273    5.09686594289857    9.78002892139856
H        11.31871241958907    6.43715611358725    8.98752938681023
C        14.86836745361928    3.98316180117644    8.60789234027195
H        15.88315368719581    4.38417173597267    8.57192135770362
H        14.84416150946953    3.24547595203732    9.41307759432660
C        14.56150481768818    3.27658505114391    7.29170829742805
H        13.62821937775806    2.72289817478198    7.35040047237800
H        15.35648819454192    2.57042499531816    7.06043481676178
H        14.48898892337724    3.98507701009923    6.46998381880381
C        13.59465295125968    4.30800852982353   14.37172721343363
H        13.69715733236488    3.36232152024732   13.83417001643451
H        13.63224257167447    4.08500605548904   15.43975669861345
C        12.22931474780188    4.90301613781167   14.04531753482653
H        12.01225669471963    5.76446519055900   14.67201551832026
H        11.45247803972796    4.16146456447007   14.22138554883969
H        12.17959621498698    5.21346043645709   13.00466280110041
C        16.09322533029271    4.36033465964148   14.08362614971940
H        16.05500219903975    3.60795013283588   13.29153617249734
H        16.93570871898083    5.01761736077322   13.86001924951776
C        16.35053310197280    3.65920665845101   15.41292362383286
H        16.32523207266268    4.36157182458264   16.24255058782111
H        17.33419544965715    3.19423368298282   15.39570064617924
H        15.61460609713549    2.88143037649973   15.59843536581458
C        14.41043032245448    8.87696063102268   14.26654969665416
H        14.37039601529358    9.02589982203833   15.34724241341047
H        14.87939423756613    9.77004475626200   13.82400028407111
C        12.99032598583886    8.76546386167506   13.72738047760843
H        12.99184650614741    8.75923148090055   12.63974924012734
H        12.40374861128274    9.61830188830214   14.06251609872987
H        12.50214985966231    7.85771822028064   14.07125158292197
C        16.77453655807522    8.01468554789040   14.21296948638963
H        17.37998701983617    7.11657774165459   14.07098155702259
H        17.07688267490352    8.73606887676666   13.45353199497022
C        17.08710497039815    8.61787657782070   15.57807444892064
H        16.61683264648987    9.59113461526499   15.68734965357069
H        18.16266333198939    8.75349730087248   15.67428413209421
H        16.75410673875022    7.98113345804248   16.39496166752470
C        15.06775587059921   15.26204352856798   13.20232625198104
C        14.58693600287004   16.38490641551049   12.51135377469738
C        14.06382128865873   17.47570596693063   13.19501316824817
C        14.03001955280721   17.50320466808013   14.57417871835316
H        13.64179435716934   18.36097773341347   15.10243920669429
C        14.48645166458542   16.39615494043101   15.26028333126146
C        14.98147393777929   15.27071152248733   14.60430174459934
C        14.48033040418981   16.60859765479207   11.01062502746955
C        13.98273526290340   18.07098796028638   10.89318859481231
H        14.79231819736224   18.70993055287624   10.54681256865486
H        13.17916320684804   18.14580366061475   10.16317774981613
C        13.50971241227341   18.53812492918642   12.28196704150296
C        14.53433907033735   16.27438732828614   16.76142530926493
C        14.82326119517695   14.77881956937284   16.96601377086485
H        13.91452608937930   14.26672067295783   17.27641125123459
H        15.56009373109125   14.62932193730199   17.75183393359914
C        15.32884536634267   14.19287699930856   15.62295891537567
C        13.42243690818351   15.62697259888196   10.45857547024248
H        13.70163780660942   14.61136155075976   10.75866423524250
H        12.46699887804414   15.85784658354129   10.93691153638295
C        13.24402041600710   15.65337317112264    8.94431023002253
H        13.09914516130955   16.66693027925785    8.57755741271994
H        12.36933250536466   15.06971302504053    8.66233714870456
H        14.10769480869868   15.22602501801450    8.44296313391433
C        15.80957487742123   16.42984299773345   10.25692191906465
H        16.02686375761864   15.36105755894016   10.18137435291641
H        15.68734873708869   16.81393397768850    9.24196152869527
C        17.00134851985797   17.12064269590902   10.90756021681319
H        16.94277918344322   18.20123979541004   10.80492147768552
H        17.92345638240700   16.79088470503867   10.43332156069214
H        17.05169707764461   16.88374055308597   11.96715534716175
C        11.96933848318491   18.49207545000313   12.40699791577106
H        11.63215288579270   17.49534473488647   12.11350329855768
H        11.70496709943983   18.62225944864471   13.45939724980725
C        11.21922375080475   19.53265704496301   11.58269827493969
H        11.41180808585748   20.53742480384971   11.94848095142001
H        10.14854490173942   19.34957711934330   11.64881917474887
H        11.50464357132545   19.48870099884995   10.53439718127264
C        14.00895409518252   19.94722687151056   12.64827890742175
H        13.75417860032759   20.63118559851656   11.83627542570398
H        13.47433525596797   20.28050202817614   13.54111102291946
C        15.50591671599176   20.04081002624738   12.92025074718669
H        15.80358806190213   19.34241917061676   13.69839312028626
H        15.75994048368620   21.04841643358655   13.24360772228642
H        16.08418834003187   19.82029633458390   12.02776957140974
C        13.23174490060823   16.73611076165930   17.43899895748534
H        13.26730166796814   16.45129410212600   18.49225432555730
H        13.18936527581598   17.82699156555923   17.39450521745766
C        11.95297697022775   16.17750465176994   16.82410876849115
H        11.92637946861785   16.35541780307804   15.75172575914652
H        11.08672614922977   16.65634757735301   17.27668251527497
H        11.86643365500720   15.10775081031097   16.99564634811441
C        15.70422287286719   17.15987906901846   17.24977579274567
H        15.53970708882753   18.17734177610949   16.88549640025181
H        16.62275199252047   16.79739372893144   16.78398628690957
C        15.90052525811136   17.20755805233830   18.76106944928412
H        15.07130494635522   17.71064721690520   19.25117482756135
H        16.81135188611477   17.75553566655603   18.99387355874086
H        15.99256628155698   16.20842461056479   19.17997677911531
C        14.63309820235946   12.85593429894731   15.32214177312528
H        15.16470450097866   12.35005430747678   14.49985638905661
H        14.71083955396319   12.21986031017573   16.20593455182270
C        13.16654964276932   12.98634068763497   14.93293984135852
H        12.58571716194112   13.46742715999438   15.71509604069903
H        12.74858759901004   11.99789837411135   14.75468858006653
H        13.06236887226597   13.57260502229441   14.02261750857764
C        16.85644044211385   13.98459098373442   15.67950259391419
H        17.20514726449849   13.73223430812462   14.67777011685181
H        17.32363153837014   14.93093210166621   15.96185934335768
C        17.33260779173165   12.88922359568568   16.62760685621640
H        16.94515534229508   13.02054460450737   17.63568008804237
H        18.41949302843202   12.90647237732147   16.68065656775963
H        17.03380945089498   11.90831112410972   16.26904194745273
C        13.55348291073314   11.57097367749990   12.05278583678299
N        12.42366362913893   11.63799369904633   11.75859205840837
C        11.09921813378450   11.78817697201995   11.30476468274090
C        11.15178479859193   12.07487025059511    9.80068678817611
H        11.73366117915548   12.97316008781040    9.61100784494765
H        10.14596567504536   12.21463130655054    9.41315271443385
H        11.62104024962016   11.24482557105272    9.27887538268414
C        10.34123427700418   10.48641828431305   11.57926084061186
H        10.83092405379133    9.65245122434039   11.08199719517220
H         9.32292263316334   10.56768320640560   11.20877783100307
H        10.31040394362897   10.28008165615358   12.64614007816667
C        10.46663672885556   12.96063881274379   12.06035754835032
H        10.45882752179303   12.76411154410679   13.12978481565599
H         9.44464411789991   13.10997457849380   11.72251105964596
H        11.03363498824129   13.87150775960428   11.88285646764162

