33
CSD_code = DIPZAD | q = 0 | S = 0 | Stoichiometry = C14H11BrN3O3Re | MND = 6
Re        1.87257292739430    3.51611056345822    3.00394006254005
Br        2.65408812784222    1.94497684798976    0.96075050592865
O         0.93555349064538    5.31819592321650    5.34463259857386
O         3.83715158140423    1.73076600371037    4.61467278610605
O         4.24706330440032    5.28184476943342    2.07255454143996
N         0.19998833102720    4.78753440321343    0.62075971243770
N        -0.15732871912529    1.08051921161488    3.10660622407980
N        -0.95446641224241    0.07022441017948    3.17936854454627
C         1.27185638555282    4.64646922766408    4.47951554030552
C         3.09946255881658    2.42385026477390    4.09169177033752
C         3.36360797519353    4.68049084659466    2.46960043473621
C         0.73233505551107    4.40511351768850    1.58588760177202
C        -0.37839892423460    5.25155497238585   -0.51455211507318
C        -1.61790798894214    4.75350684890272   -0.91051149349591
C        -2.19353916024729    5.22961938670206   -2.07244378654804
C        -1.54479026286908    6.19073967342444   -2.83224971689379
C        -0.31124487990422    6.68054318057771   -2.43204505476172
C         0.28084058178468    6.21688418650736   -1.27340211504033
C         0.43564792928370    2.07620892847278    3.24711773725324
C        -0.84393582335636   -0.95506406876087    2.42450394068744
C         0.17445137681716   -1.13573656384478    1.35334032080554
C        -1.82948886654512   -2.04794680843226    2.64527150941460
H        -2.10895059763992    4.00381826111882   -0.30858756368394
H        -3.15295244065774    4.84804701803593   -2.38722970040982
H        -2.00064091629780    6.55747782228390   -3.73922231962975
H         0.19387501804203    7.42680466477495   -3.02608998595507
H         1.24253290376809    6.58555762418467   -0.95044888656317
H         0.92793119288939   -0.35026062631671    1.35894796658866
H        -0.31748960572211   -1.12704351200248    0.38042639755154
H         0.66368221024058   -2.10208738623524    1.46034471377403
H        -2.55350203905683   -1.76373520693459    3.40351820880753
H        -1.31003689151593   -2.94988599009966    2.96671997735522
H        -2.34486742225253   -2.27999839428051    1.71481164301293

