81
CSD_code = DIQRUQ | q = 0 | S = 0 | Stoichiometry = C32H48Zr | MND = 12
C         4.01279909342337    1.69691316191692    6.10276977766707
C         2.95804956448437    1.04819291640024    5.36201986802825
C         2.30997932113500    2.02256299375168    4.57041552284155
C         2.92752307004746    3.28506204156293    4.81136375431906
C         3.94799428553023    3.10183538597005    5.77318611468966
C         4.92492704990691    4.14444332542361    6.25017648302405
H         5.14281707683373    3.97828833581588    7.30887829821473
H         4.46596804644914    5.13004383563104    6.15310848432536
C         6.25647961544132    4.12041889219128    5.43827262192110
H         6.86727591055852    3.28400394187565    5.83144172734103
C         7.11843338595331    5.39626644916909    5.65915625903410
C         7.42582680565195    5.56138982954014    7.15333386009371
H         7.87248900647586    4.65550922008957    7.55915281029801
H         6.52703280520587    5.78836513337019    7.72024279554495
H         8.12821143224584    6.37986897760750    7.29868420598912
C         6.55052022787646    0.01760842069282    3.37903072604939
C         6.57965392110833    1.08660042322440    2.44115287046059
C         5.29810871598011    1.14689805827616    1.81693104986890
C         4.50134373903780    0.08884120864549    2.34658473532146
C         5.27992505701481   -0.61713275107940    3.30206577318571
C         4.96443786978489   -1.94801852283251    3.92821482392241
H         3.92623669908248   -2.22772569128525    3.76961243533989
H         5.16416015412602   -1.95151768859478    5.00030203384414
H         5.58831921667448   -2.72227684682811    3.47528559487044
C         5.33618020230227    1.05338606995346    6.25348686413105
H         5.28786598521761   -0.01763238330744    6.49223955428503
H         6.01348591941825    1.56170401625408    6.95205167750483
C         5.93156398359952    3.75983142877962    3.98503216641610
C         6.12260456911848    4.47739377792961    2.93172101959250
C         6.40853065286740    5.07375069070928    1.79070479499025
H         7.38123335037102    4.90064274170332    1.33720279646678
C         5.54789919558408    6.06084093388589    1.03342661606127
C         4.12946580820083    6.08480901281015    1.59831566169609
H         3.72047096131022    5.07549630757842    1.62455295852464
H         3.48312791410805    6.71219318460339    0.98725676673000
H         4.13245771135871    6.47952177635741    2.61104085834557
C         6.43010100092827    6.66307286851739    5.14933154126040
H         6.09628166820152    6.51630775096718    4.12710778940957
H         7.12634195601243    7.49908088448359    5.17212231557997
H         5.57427994321798    6.92635602366521    5.76659039713675
C         8.44929224959678    5.21524141070455    4.91906875107326
H         8.28120969613244    5.13413611242525    3.84955286388302
H         8.95730188597708    4.31459711135122    5.26110102750458
H         9.10324251665038    6.06530554296077    5.10233436018935
C         2.38191992189326    4.59590324584430    4.32298393211384
H         3.14016794079173    5.37422431941517    4.36485895870668
H         1.53653661177610    4.90958134002470    4.94138268605764
H         2.02520383753685    4.51611392442538    3.29655008530858
C         2.45959500462577   -0.34858152494663    5.61319469657880
H         3.21328133596115   -0.94667085958857    6.12250325886321
H         2.17055520405842   -0.85573136820264    4.69259494129803
H         1.57536897092962   -0.31758724864391    6.25683252545679
C         1.02167355181069    1.84629859376303    3.81492776210878
H         0.80106147904680    0.79358314724721    3.65033368794319
H         1.05149019379102    2.35250805893703    2.84777869403162
H         0.19184845957770    2.27659546739121    4.38094898188399
C         7.72999759946697   -0.41952668973160    4.20535089650531
H         7.42783642078119   -1.13368847046744    4.96899967665107
H         8.19919694261763    0.43889196008472    4.69589354698488
H         8.48460344119563   -0.89851437256883    3.57623518673147
C         7.83170503444517    1.83831095417456    2.07827762561697
H         7.64704822215754    2.53112347131212    1.26211530474539
H         8.60084204106896    1.13340826312155    1.75457693804900
H         8.22749461669943    2.40259885479256    2.92724874267481
C         4.86565765644649    2.06532572364323    0.70579739435551
H         5.55281857683988    2.90539388518483    0.61844441258685
H         3.85973385108717    2.46052949705663    0.88849410191515
H         4.84445823726986    1.53522631317117   -0.25072887228268
C         5.49824751224942    5.67575008648934   -0.45178815111657
H         4.96981439945732    4.73554013910981   -0.59329069928028
H         6.50348209463861    5.57109421533646   -0.85651867222133
H         4.98069350432595    6.44446143746665   -1.02344512853468
C         6.17660575591063    7.45817868153381    1.14808186453248
H         5.57911643400422    8.19044735229800    0.60748150529109
H         7.18151378278707    7.45804323029271    0.73017055997143
H         6.24095088191405    7.76792321974600    2.18878989606538
C         3.15677768320876   -0.29781746061059    1.79160658580863
H         2.64449003279062   -1.00860497429917    2.43740883006561
H         3.27612290241659   -0.76981628370736    0.81241134656350
H         2.51331107328085    0.57467475034582    1.65881940157516
Zr        4.97262955093458    1.76843280768819    4.10365408941231

