63
CSD_code = DIQSIF | q = 0 | S = 0 | Stoichiometry = C26H36Ti | MND = 12
C         3.01412032751689    3.93323618119462    2.69292693265601
C         2.04666939863172    3.64127666816546    1.71235100371618
C         2.18621459356879    2.27437035974991    1.32055970016204
C         3.21040774008322    1.69200064554428    2.07574883558727
C         3.70386186980031    2.69030459113366    2.99816476437491
C         3.91902313319155    2.34187218319192    4.36242774882943
H         4.26592846051307    3.12454493934922    5.03639326347491
H         4.36616413421260    1.37087959307731    4.56783165104604
C        -0.07962457582715    1.15881868209458    3.53035943223902
C         0.94480284670689    0.17775796357703    3.62484511870183
C         1.57933451562217    0.33048315307782    4.88152879096017
C         0.92868913396030    1.37933457426481    5.58832761033932
C        -0.12781369094139    1.85465233831281    4.76450921713941
C        -1.03545801587707    3.01228862707087    5.04147785104072
H        -1.20391799763060    3.11934160138564    6.11940661494798
H        -2.00836443463120    2.88277894088134    4.55817403332419
C        -0.31604231893833    4.24776519641469    4.52969915812793
C         1.13025874696221    4.10844931852600    4.74710144659666
C         1.77337433635067    4.78087544162100    5.69466937578903
H         2.83143738506515    4.61304979356800    5.87843797056496
C         1.16438317777894    5.81125546502703    6.61055080679014
H         1.34557222712118    5.54314979451607    7.65225335855508
H         0.09263072414798    5.89251027234572    6.44629126991758
H         1.61905326773696    6.78823476667565    6.43954259720551
C         3.51320731218762    5.29106736525959    3.08635790217716
H         4.29020641998843    5.20198324185554    3.84361631004546
H         2.72500407606204    5.93260440926102    3.47641767435643
H         3.95050548814364    5.78010374578043    2.21123730661435
C        -1.10656212919269    1.29654742411856    2.44355710465012
H        -1.19754637459742    2.33631388905077    2.11742544930366
H        -2.08536226416791    0.97591392594118    2.81117204434091
H        -0.85522618857592    0.67751636395500    1.58515852336348
C         2.56886219407028   -0.61506253128313    5.49492538905674
H         3.22326293024449   -1.06184569921529    4.74766497876425
H         2.03516613867751   -1.42826693911077    5.99477253415333
H         3.18175130596358   -0.11048542005626    6.24047672113277
C         1.06301006779508   -1.02661469121990    2.73923741217469
H         2.02492734627718   -1.51931858591883    2.85470928462369
H         0.91594833193331   -0.78234880750935    1.68915401554425
H         0.28780512148695   -1.74568932395674    3.02030343239452
C         1.16752061919126    4.62859472003769    1.00687987426295
H         1.27072079390884    4.52408618975705   -0.07481053845138
H         1.44011792184150    5.64341899985599    1.28488004427163
H         0.11729178502144    4.47454899705818    1.26320577786630
C         3.90006221180812    0.38451802250402    1.83476683822224
H         4.12708166802246   -0.13018909725240    2.76859727187118
H         4.85094490996383    0.57218203173608    1.32747318411745
H         3.31203248064896   -0.27417382885757    1.20108322987365
C         1.51868316917074    1.70560865045286    0.10444642527568
H         0.47911468919927    2.02207527804964    0.03931725254223
H         1.55880258366915    0.61848004990176    0.08917333140792
H         2.03349005046939    2.06679155470342   -0.79053237822476
C        -0.97925671874050    5.26200782930322    3.96991701897039
H        -2.05608755075814    5.18695078872338    3.85460677232328
C        -0.38474939894271    6.55210471511046    3.50448970389934
H        -0.65265589702305    6.75604631679334    2.46727580654199
H         0.69700736897042    6.53011529131540    3.59838218175851
H        -0.76806444667510    7.37682945896898    4.10835640460284
C         1.20762040081053    1.75131218462789    7.01432182876595
H         0.65505609622459    2.64455793320718    7.29843846416736
H         2.27122267606200    1.94780663177625    7.16175017893521
H         0.91565360021013    0.93446790503461    7.67958625302146
Ti        1.80242622552631    2.40500991947856    3.77623043919467

