109
CSD_code = DIQVEG | q = 0 | S = 0 | Stoichiometry = C36H64B2FeNO2PSi2 | MND = 5
Fe        8.69748974807109    6.68001273597661    5.23662516309000
C         8.71490452495548    8.26335177634530    5.99320593154619
O         8.66259868687997    9.36389081440018    6.36837294056813
C        10.30282491336117    6.69486368860656    4.53047743728242
O        11.32355663705648    6.78733132629925    3.98299381632081
B         7.33143567587625    7.43309756706624    4.25796144852114
B         7.62534633417182    5.77118234638295    4.04346159637543
N         6.65313139995305    8.45953502197323    3.62931915709004
Si        7.40697275774777    9.08652768157498    2.13921829705049
C         6.11927323818127    9.98440083511206    1.06279208046841
H         5.32565693872929    9.31768104127818    0.74297939211280
H         6.60447656190526   10.36284976844356    0.16891389706923
H         5.66049134705250   10.82759233575010    1.56524248271271
C         8.83657331687714   10.23182469916732    2.65761324376390
H         8.48828049269659   11.14198683970043    3.13509568361750
H         9.44475425161534   10.51894312547223    1.80551330501151
H         9.48084493185239    9.71682067402218    3.36624767291081
C         8.09088223989508    7.61780497178616    1.14447110010590
H         8.93912611973647    7.17558398757625    1.65686297796895
H         8.42582296696178    7.93877960106050    0.16296192956814
H         7.35029676884171    6.83653645030586    1.00194279503471
Si        5.33214958464050    9.33822786958496    4.42039011887675
C         5.03440415115129    8.64408982199576    6.16813826737838
H         4.59658605616253    7.65147254201138    6.16425692902102
H         4.35733863222976    9.29190048022184    6.71708351311789
H         5.96487969796912    8.59777065650851    6.72468318323348
C         3.74418500701087    9.14686632676714    3.37546713557000
H         3.52832645852397   10.05176095104503    2.81790303282675
H         2.88619656357456    8.94834208612622    4.01018118572036
H         3.82309506352914    8.33453292244294    2.66037036237064
C         5.83232649885423   11.16328421481473    4.63312689694147
H         6.74177093249258   11.24028761701802    5.22152572907762
H         5.05613621867741   11.71396813263057    5.15629183220407
H         6.00807897512161   11.66380078110666    3.68677047821988
C         6.87088923794530    4.87362357396053    3.03739217861272
C         7.59308895137843    4.16141394513057    2.05510854142833
C         6.93751344561323    3.33133280250753    1.14735551980818
C         5.55842776178302    3.20884640699107    1.21247771893747
H         5.04993746771652    2.56924656156242    0.50333259389852
C         4.81610960303052    3.88501967016497    2.16762576865206
C         5.47008366814764    4.71298040278366    3.07851316946389
C         9.08559359538210    4.27281093152223    1.96080615717758
H         9.54873974563740    3.30161604645009    2.13642573849377
H         9.46652394640907    4.97624189792980    2.69497185926292
H         9.38379769737089    4.60393880277670    0.96637414688305
C         7.70073295509869    2.57455327000577    0.10137537914509
H         7.02695917256406    1.97042881006505   -0.50187820803434
H         8.43754342768100    1.91623289896788    0.56091224345206
H         8.23500215064871    3.25798057395376   -0.55868987901725
C         3.32559437246022    3.71683440006767    2.20496658413586
H         3.00571633195938    3.30311663170750    3.16154846960148
H         2.99740809745947    3.04569533025769    1.41465023811168
H         2.82146999532115    4.67455515235291    2.07406521114787
C         4.63859457030499    5.42329979167513    4.10593412342159
H         3.90273534085038    6.06854825614489    3.62599494257022
H         5.26126442481543    6.03570198765129    4.75092296624674
H         4.09218029241147    4.70140625515673    4.71492562800931
P         9.00738202012541    5.35911498985617    6.99916573164904
C         9.84749605802797    6.28515495547147    8.41111001287354
H         9.16852479095601    7.13453140273345    8.57272946057816
C        11.17916320203060    6.87370636296555    7.94358848360439
H        11.92248105646949    6.08205835413677    7.82417178530479
H        11.04201688203263    7.35753590769990    6.97326336835468
C        11.69436574985071    7.88385232117681    8.96517838186449
H        12.64529094092442    8.30117502417410    8.62743712386527
H        10.98043574255158    8.70610136324968    9.04966894250034
C        11.87248950432640    7.21981051702322   10.32744588878418
H        12.20502028450671    7.95558233587006   11.06289863111289
H        12.64349801870013    6.44866599672628   10.25534163388054
C        10.56427788675802    6.58235221221269   10.78480734511135
H         9.81220013349568    7.36205762855910   10.92791892178749
H        10.71090705847845    6.07986602933129   11.74411406494534
C        10.06141524321532    5.57675334877379    9.74805012813477
H         9.13539535406839    5.12588737802593   10.10879256568809
H        10.81034626462566    4.79118152197311    9.63554266483415
C        10.12507840878586    3.84080649651037    6.85987283245108
H        11.12754696117563    4.24608766208186    7.05521318294150
C        10.13143522518349    3.31505515953238    5.42463357622846
H         9.15611181269126    2.89208411771117    5.17623623776607
H        10.30842305855966    4.14936472557587    4.74484467270731
C        11.21459828712691    2.25553883147430    5.24171018343403
H        11.19397538019027    1.87782988564040    4.21719998243727
H        12.19449889952862    2.70926437225868    5.40828866326809
C        11.01765096567970    1.10550481342059    6.22423553563815
H        11.81868962050936    0.37189887310615    6.10969060983525
H        10.07112494985659    0.60343055807417    6.00970302180475
C        10.99466928223784    1.63456845308521    7.65411376262335
H        11.96134849227893    2.08715745839117    7.88852625226161
H        10.83356632045297    0.81117212073717    8.35423438512568
C         9.88752024816967    2.67557978395471    7.82232965250540
H         8.93129254394719    2.19779938543168    7.60569090023375
H         9.86971112764314    3.01322131932896    8.85810991208037
C         7.49365512533094    4.66804134928528    7.87276700396477
H         7.80314692184754    4.03354353978795    8.70904682720795
C         6.68573110968523    3.83998313750619    6.87635158293857
H         6.46089195088711    4.46739035817828    6.01073892877462
H         7.27565407183160    2.99571807768513    6.51645870754492
C         5.38982089800761    3.32483314961659    7.49595805149630
H         4.83165391350976    2.74927803219247    6.75361076175407
H         5.62206933856083    2.65517861475661    8.32858690273942
C         4.54198138276910    4.48427412766730    8.00665041302018
H         4.25583346158312    5.12309366301273    7.16866684777241
H         3.62714110836679    4.10615282521884    8.46893290453703
C         5.33664217624447    5.30520492220832    9.01500478201345
H         5.57065634914213    4.68215735988056    9.88243658105749
H         4.73808723303220    6.14984267671836    9.36372941995977
C         6.63450733561555    5.81710647342830    8.39501616146078
H         7.18059726255579    6.39124332261362    9.14528076482938
H         6.40966264154307    6.48428061371738    7.55783275655809

