50
CSD_code = DIQVEE | q = 1 | S = 0 | Stoichiometry = C21H24N4Rh(1+) | MND = 6
Rh       10.98157635674065    3.15947069416469    2.87564589276125
N        11.34751430664542    1.83651097976261    1.48265166565834
N        10.55052923124037    4.07950823408209    4.55559878199117
N        11.05823321548178    1.31923155078784    4.20648621601978
N         8.77562232840756    2.37169047447187    3.10100266042044
C        11.76008764127418    4.84060133532621    1.83115094040022
H        11.74139487115402    4.74216574309087    0.75039019111742
H        11.39208949327676    5.79750410089795    2.18690054997160
C        12.78401480617485    4.19832157140622    2.55128422457273
H        13.16630097327298    4.66462593889149    3.45525077956797
H        13.52079552367637    3.60992107733537    2.01130551302292
C         9.82184921562356    0.56818852510987    4.35332059098211
H         9.70243619902215    0.19007636944461    5.37800642400187
H         9.84713296943151   -0.29799220258116    3.68256633751832
C         8.60232453255623    1.37981536116718    3.97300423081401
C         7.35379765233410    1.05260477038407    4.47899116218501
H         7.24733255846253    0.24525810358789    5.18592029201609
C         6.25244793554622    1.77894297371684    4.05379442053538
H         5.26778178360133    1.54979441168028    4.43018893319466
C         6.43937390873743    2.79822724059904    3.13891651907648
H         5.60633106506452    3.38038256806956    2.77914191314464
C         7.72429958031655    3.07503376757477    2.68186341806908
C         7.97611111327953    4.16248408319028    1.69161902499333
H         7.52133544155285    5.09387820269666    2.02127709523652
H         7.53526357452549    3.89988953032719    0.73102388841907
H         9.05504543398261    4.29904744384165    1.56883837399477
C        12.09261565530003    0.60409797708955    3.45760613204460
H        12.19546279391771   -0.43975532449634    3.78553164580785
H        13.05340860701195    1.10685957765924    3.61652247070848
C        11.78078694853019    0.65758214235241    1.97587257651356
C        11.93757932518338   -0.45526827666645    1.16697984607261
H        12.29252001270982   -1.38116282548470    1.59238762954491
C        11.64179330308891   -0.37024522168178   -0.18567327125699
H        11.76414989130952   -1.22627472483521   -0.82949939957805
C        11.17949355197649    0.83758697447574   -0.68063947534046
H        10.92690335012398    0.95333923920341   -1.72180103989251
C        11.04868923696574    1.90837979587398    0.18581311673133
H        10.69404377400259    2.86379358922556   -0.17600893494640
C        11.47369609514295    1.99211239228265    5.43553119811764
H        12.53513857938003    2.25251118968343    5.35339926664600
H        11.34804891241910    1.34702278524726    6.31722643690229
C        10.70342275798976    3.28152428400610    5.63235800204044
C        10.19580513408926    3.63003955198430    6.87269329945039
H        10.33714137065602    2.97001095718150    7.71426341856140
C         9.51248320843255    4.82726385404843    7.02567586720167
H         9.11329236637805    5.11314221287017    7.98546006397877
C         9.35646405469367    5.63934083835594    5.91508136504603
H         8.83340623089567    6.57925146666472    5.98040639305857
C         9.88897084874458    5.22652239140472    4.70684752908615
H         9.78526227967627    5.84264230453015    3.82452582381632

