94
CSD_code = DIRFIW | q = 0 | S = 0 | Stoichiometry = C30H44F12MoO6Si | MND = 5
C         4.30862993616886    6.54060622650778    3.78447475481164
C         4.00329959933192    7.56957453921922    2.89135100883482
C         2.69318103832514    8.05707586151135    2.69270628659179
C         2.46255774392312    9.06113663117600    1.76860612501321
H         1.45137851564413    9.41898738485177    1.63076412713738
C         3.49015471937518    9.61424035727585    1.01955070505038
C         4.78273454402243    9.13513430940651    1.21740005349668
H         5.59239952576757    9.55873685666692    0.63894064920077
C         5.05596530605344    8.13717969138313    2.12814355642624
C         1.53980237597276    7.49935992797928    3.47631213694209
H         0.73818410686460    7.19713736874613    2.80432161073201
H         1.13504969843898    8.25711149384380    4.14778893073793
H         1.85778371410384    6.63829819915003    4.06099099326977
C         3.22964648440412   10.69282918024184    0.01300201336110
H         2.19889415396489   11.03396306396648    0.06526589200616
H         3.42005780574979   10.32282263252831   -0.99446670552422
H         3.88899958147699   11.54260021682050    0.18365113846292
C         6.45064894576249    7.64370004882896    2.34279128281451
H         7.12554861405328    8.04688240701795    1.59193770074094
H         6.47118590918360    6.55195163524495    2.31389208961067
H         6.79874089660323    7.94704402789954    3.33189890173203
C         9.01907479785264    2.25430645953659    3.34746990276308
C         8.75724834097404    0.90462916068601    2.67548541140574
H         7.78131416394540    0.91521477877168    2.19911422374585
H         8.76554728389474    0.11203086283782    3.41894092566650
H         9.52060692762842    0.70039633025393    1.93000115040793
C         8.97180786934395    3.38179927253613    2.31928569670158
H         9.22068694026940    4.32644997379295    2.79535088167781
H         7.96699433274542    3.46456250573914    1.91234682555898
H         9.67329026913423    3.18981880586126    1.51185261552547
C        10.36407945965044    2.24685460066196    4.07421275190158
H        10.40665893703892    1.41260597804769    4.76968691767779
H        10.47200528323605    3.16852208485098    4.63792996915145
H        11.17863291029167    2.15744640275773    3.36094268038968
C         8.93493426862719    5.71914462113076    6.31525859279461
C         9.45196647534145    6.49972836247003    5.10488836603327
H         8.70498584576338    6.46236222747435    4.31320555423560
H        10.37501677407653    6.05567080271927    4.73973714815091
H         9.64069998528068    7.53521605481754    5.37456322571140
C         9.99463367521002    5.65372569991041    7.41878158603270
H        10.87495129926563    5.13155718473596    7.05363806197775
H         9.60499485467420    5.11181565929907    8.27626975094935
H        10.27864528421787    6.65497555584540    7.72942818866550
C         7.65876629315728    6.37444736746401    6.84582558741138
H         7.21017107157167    5.73889891645773    7.60838148460865
H         6.93467160151468    6.51720419644763    6.02524545303352
H         7.88482481527472    7.34194906907304    7.28800668885039
C         5.90497461601596    2.25060170319739    6.89616917786155
C         6.85568685745351    2.36841469787907    8.08864702773736
H         6.70092172559374    3.31800354515564    8.59735334754487
H         7.88474989155951    2.32079919477181    7.74004949575059
H         6.67614452558718    1.56130255359473    8.79364852379677
C         6.08429460714009    0.90416212632949    6.19609422446195
H         7.11244229757418    0.79677560240889    5.86447678756623
H         5.43898103140450    0.85051796339413    5.32296393708855
H         5.83374833303656    0.09267790310433    6.87408996399420
C         4.45083407045888    2.42783007801468    7.34521403099198
H         3.79849698127176    2.46893812446878    6.47168189659364
H         4.34252410173956    3.35076925980761    7.91140205020715
H         4.14071888371783    1.59742359973352    7.97359925866100
C         3.75065025803444    6.59309290423873    7.20330583018877
C         4.25775641641676    6.72967069147299    8.66555114108837
C         2.35863574824966    5.89680939426259    7.23070144896926
C         3.63460626713228    7.99492173934276    6.59234321050915
H         3.26053292552728    7.90357369864784    5.57506842430208
H         4.62669962656219    8.44202589518317    6.55586907290125
H         2.96891541371764    8.61710033706292    7.18582001012292
C         3.36196911915961    3.22057698979235    2.97846127541383
C         2.54003710347141    1.95909574394649    3.34357254720059
C         4.50907370762654    2.83429142407628    2.01736020677122
C         2.44036927340326    4.23624297474229    2.29610165922990
H         3.01185105925930    5.14080371922719    2.09247057498052
H         1.62434179974541    4.47838307559361    2.97391723172356
H         2.04289715042813    3.82418072802768    1.37120447598395
O         6.72006997057394    4.87507541237109    4.17208785137286
O         7.98168955101633    2.42217602642427    4.30544178457880
O         8.69227590473189    4.37391997626129    5.91924169838342
O         6.16454357616792    3.31036981403264    5.98229197053361
O         4.59307742034152    5.74568838620687    6.54434091571094
O         3.97102350889133    3.65706711575289    4.11983513747765
F         5.32803871237140    7.53012375408452    8.72975569542840
F         4.63100807031473    5.56233727308388    9.19007203576078
F         3.33616412114671    7.25800858414615    9.48006719576009
F         2.24000998874069    4.99112123471247    8.20171458130941
F         1.33283365820501    6.74120937934909    7.36200500684316
F         2.16737108974060    5.23645821246633    6.06996917233603
F         3.27011003127083    1.01800701027291    3.94317487659285
F         1.55494053470346    2.27804552055332    4.18793789944514
F         1.96593246152546    1.38628945194229    2.27745432772129
F         5.29281115731036    1.87384717077305    2.50824356880164
F         4.09772968044048    2.42166425903083    0.81242221134194
F         5.29682174590804    3.90244082341725    1.80876736473360
Si        7.45532219987444    3.73478728266554    5.07007646926553
Mo        4.93911985028327    5.13007265053997    4.77019051250539

