55
CSD_code = DIRHUH | q = 0 | S = 0 | Stoichiometry = C22H24Cl2MoN2O4 | MND = 6
Mo        2.74021582689500    1.96159328953549    3.11508752592424
Cl        3.15164929236072   -0.09158786913395    2.07713036406337
Cl        3.53973132638654    3.99632674536197    4.02704715576240
O         1.69473696374336    2.56542335009648    2.00436653896266
O         1.90487001571906    1.47292557394418    4.44083628826953
O         4.39533490926995    2.45952804774046    1.79577412808108
O         4.56699891344541    1.37075513145238    4.10185613911936
N         6.82901100086649    1.54582878836489    1.55711712045645
N         6.82774783696867    2.62580361104071    4.57281458396467
C         4.72054000031030    3.38557591554651    1.00055642017878
C         6.02357797598272    3.46300492228646    0.45762667123106
C         7.05534990769892    2.58562268143996    0.75044392247633
C         8.39796748781015    2.80218545632267    0.13094189031479
C         3.71628773431601    4.43295452223704    0.65000066171472
C         7.63522155626173    0.55103335403531    2.10011190064418
C         6.98088541182380   -0.62448280424189    2.48144536526840
C         7.68463766631650   -1.65056643556425    3.07689644828144
C         9.04640681974581   -1.52250644153311    3.30702957094165
C         9.69303225603509   -0.35401567346308    2.94629378039788
C         8.99847469824354    0.68560967051657    2.35050325138314
C         4.91118370341814    0.53164330151814    4.98298997677532
C         6.18331636443134    0.59502372830605    5.59299115535789
C         7.12937299720338    1.57238894926060    5.33611694325846
C         8.50147611984157    1.47442253551867    5.91053855014576
C         3.96671578018727   -0.56237626382964    5.35064280104020
C         7.64281008050824    3.62779452567052    4.07658192214196
C         7.06921380784236    4.73037653881222    3.41612342304679
C         8.04763589172922    5.58747618974715    2.92633059770949
C         9.32386213040814    5.18883042328219    3.19661097371395
C        10.14624507403757    4.28950745266053    3.76526989002439
C         9.01660505354230    3.63612297512556    4.11416672505261
H         5.83557376736765    1.44144217099208    1.79930327855167
H         5.84390834621617    2.71490106554535    4.30249440593710
H         6.22935438631234    4.27539420179830   -0.21836294110648
H         8.88977730313851    1.85337350406051   -0.06976309943742
H         8.28963949898236    3.35192767293322   -0.79996412920859
H         9.02840870682281    3.39510649343984    0.79387300396977
H         3.93828476904056    4.91944190876780   -0.29463826105147
H         3.70455932247246    5.17772759374527    1.44945143154501
H         2.72380544370793    3.97478843245315    0.63263022217700
H         5.91806279064512   -0.71902972134613    2.29974506082845
H         7.16959127421597   -2.55458321586528    3.36246902111016
H         9.59782299094923   -2.32542393576905    3.77123001300047
H        10.75078389093412   -0.24168887550723    3.13470680757143
H         6.44458856315545   -0.19319803264847    6.27797945706938
H         9.21892753131667    1.28604328393335    5.11261188264844
H         8.55752808991143    0.66599358252112    6.63236442605458
H         8.77797763955653    2.41202012096052    6.39012355455532
H         3.87058243583386   -1.24581341460329    4.50396139888078
H         2.97836632521472   -0.11590990641363    5.50046852252359
H         4.28207187955359   -1.10519341424935    6.23550816044846
H         6.00066872505728    4.87567064157080    3.33597365312426
H         7.83417043537738    6.49344720635868    2.38723172071929
H        11.19571029313617    4.14871587613542    3.89275721703321
H         9.51622098774210    1.60152456912681    2.12090250734289

