109
CSD_code = DIRJIX | q = 0 | S = 0 | Stoichiometry = C51H45CuO10P2 | MND = 4
Cu        1.07314911224163    5.84223283336488    8.40057894027425
P         1.90898812851795    7.81953219280127    9.05705202148149
C         3.21687940631717    7.74010852283939   10.32429968260970
C         4.19364787792714    8.71035521612539   10.51631562430304
C         5.12931896447801    8.55204066155792   11.52381493042962
C         5.09585996176245    7.43484003049360   12.34243402971226
C         4.12263303602204    6.46565324896095   12.15545028146878
C         3.18997937861448    6.61773230735782   11.14774367574039
C         0.59532523509818    8.72585649952016    9.94247316241829
C        -0.71937461486895    8.45050575855097    9.57387047640608
C        -1.76672731689367    9.10156371303278   10.19965470312882
C        -1.50702719839298   10.02330804440353   11.20123900766190
C        -0.20020664825048   10.29546991322700   11.57295671900393
C         0.85211495700530    9.65112810744755   10.94713713596857
C         2.49408536897632    9.04934810549594    7.85809498827273
C         3.76970157846995    8.90149764713096    7.31635670213178
C         4.20205244531816    9.76932484691629    6.33244360302378
C         3.36112975306303   10.76553457613054    5.86233463610304
C         2.08245610062644   10.89320672600452    6.37789576861254
C         1.64415999701170   10.03767805243960    7.37133253557811
P         0.36279020475151    3.96729807833299    9.46781354767069
C        -1.06896215102467    3.26381032601353    8.59122853201205
C        -2.23115192508164    2.82660918954249    9.21501384607040
C        -3.28177153775212    2.34822887620612    8.45045011224587
C        -3.18279360084208    2.31026717815818    7.06964690168153
C        -2.02914640274277    2.75851977620818    6.44425567481889
C        -0.97697895021715    3.24011900176797    7.19984366630597
C        -0.22091112065754    4.11425269098495   11.18993982134624
C        -0.51079664956085    5.39455468308771   11.64920909023357
C        -0.96324311305611    5.58844450355572   12.94164661240503
C        -1.12483640678407    4.50080835958476   13.78422374188590
C        -0.83328774932907    3.22251816911357   13.33317173067450
C        -0.38165779917044    3.02490644817731   12.04106846306528
C         1.51837845916806    2.56691927404112    9.57747384199399
C         2.49576076714098    2.60712869025481   10.57073248139316
C         3.46227744721409    1.62252081760472   10.63860086843115
C         3.47128914631405    0.59516876635040    9.70811402513113
C         2.50917609833054    0.55761604512921    8.71260647317642
C         1.53736917540216    1.54011245654164    8.64122656632893
C         2.71488905463122    6.31556887611112    5.64687575389426
C         2.92090074236903    5.32699837791943    6.67047408463652
O         2.06657707075978    4.54520750413038    7.10050139939610
O         4.16691519201119    5.33600235204361    7.17059231584955
C         4.45631104917980    4.35876870850081    8.15041040097278
C         1.48724370368249    6.94359985508056    5.28783959690676
C         0.14958576742084    6.69055989945684    5.76030825355836
O        -0.20679405172228    6.35514587607658    6.89450452503490
O        -0.76668738562496    6.86572320844552    4.80849151048459
C        -2.12528622883377    6.76542175353883    5.19991692288289
C         1.77696506642712    7.89904216501562    4.29558004414764
C         0.84062417519308    8.88034301974351    3.73439634410779
O         0.04527883890410    9.52378827141192    4.38004518031517
O         0.98722004847938    8.98813208392116    2.40869897146815
C         0.26136127287839   10.01627643520677    1.75626733268488
C         3.15444432412081    7.85156140213572    4.02114607512591
C         3.85897812535680    8.70377437433386    3.06303609164425
O         3.63853819497833    9.87520566892704    2.86274223298988
O         4.81764817628286    8.02365805800055    2.40498370748806
C         5.58388982950250    8.77541831032464    1.48126801312223
C         3.73083907426816    6.87012051455784    4.84566209316145
C         5.13332658308022    6.43697642779450    4.80749551086824
O         5.51501492747542    5.29587654575951    4.72227193739367
O         5.98218020999961    7.48276469804721    4.86024909592289
C         7.35596006685505    7.16103299747247    4.73025093474619
H         4.22245888812282    9.58151929443174    9.87692601599032
H         5.88856671152349    9.30616302180979   11.67220436236296
H         5.83060671126753    7.31797577642263   13.12521660008352
H         4.09651151552853    5.59351597784998   12.79266537447900
H         2.42161299057890    5.86937856369365   10.97788747710856
H        -0.90482608590077    7.72165087078214    8.79427164337209
H        -2.78530968115219    8.88768732608137    9.91083913116386
H        -2.32407923884648   10.52964567941148   11.69385858178964
H        -0.00008871166846   11.01454347395628   12.35392589715120
H         1.87081668846302    9.86293505176157   11.23914019314626
H         4.41271189701160    8.10270376190497    7.66284985157336
H         5.18878899164709    9.64884174972584    5.91292021926503
H         3.69396624747693   11.42180063808071    5.07368518190453
H         1.41572392381981   11.65076561858842    5.99600786662907
H         0.64172082888639   10.13231808675440    7.76427431482576
H        -2.31963703353500    2.86304501766919   10.29148911425721
H        -4.18409870584859    2.00605929508024    8.93641741857452
H        -4.00757970282309    1.93785935254398    6.47978761057902
H        -1.95509462769545    2.73790446786441    5.36632483173837
H        -0.07752593307851    3.61281805728216    6.72901759045600
H        -0.37209338116020    6.23499693229273   10.97978417974356
H        -1.18480318773076    6.58637783405854   13.28989320987111
H        -1.47528271967812    4.64743353785929   14.79520273898834
H        -0.95927524905180    2.37635721010134   13.99285198197476
H        -0.14904956018992    2.02928751810754   11.68930266573577
H         2.48710697628733    3.41116697304596   11.29577023231632
H         4.21371590211597    1.65730150511710   11.41398099372507
H         4.22915054771352   -0.17246977072297    9.75788649919448
H         2.51715980777048   -0.24092212113616    7.98517209449584
H         0.79317645249055    1.51025652186410    7.85948621423586
H         3.89102364137766    4.55958866136592    9.06662474902198
H         4.19780859675376    3.36071423378773    7.79041620487775
H         5.52428439268639    4.42839365221741    8.34120455465125
H        -2.29642783862839    5.84641256600359    5.76718316724445
H        -2.40036365731805    7.62461440817685    5.81565353669916
H        -2.70397368300210    6.76368156259761    4.27960384583266
H        -0.62939738013075   10.27150860793312    2.33440029997785
H         0.90117197844140   10.89615945196665    1.66083870900673
H        -0.01231292663583    9.64315057348140    0.77078312666087
H         6.20043857973261    9.50875366387080    2.00709824913612
H         6.21048169706824    8.06259457068510    0.95044802006597
H         4.92843647911149    9.30375675247064    0.78501839029236
H         7.65758985529032    6.45695322062475    5.50943869589488
H         7.54648086604936    6.70644700149696    3.75556829524565
H         7.90253489433753    8.09636613312006    4.82792711797522

