24
CSD_code = DIRKAS | q = -1 | S = 0 | Stoichiometry = C8H7N3O5V(1-) | MND = 7
V         4.20911311927413    3.53588447414321    6.95691984058078
O         2.75735574799795    4.22226906967095    7.62238048090337
O         5.42112818414907    4.41673210766594    7.85458682254106
O         5.07243761318380    3.26356709469469    8.40199000350985
O         3.69017829605772    3.30322225651911    5.34874465198505
O         4.34240488214093    4.44790650727870    5.47298089167031
N         5.95807261588752    2.17904980952016    6.14355312466437
N         2.42937296456508    1.25447741742878    7.73835513989906
C         7.69856586719619    0.22044598503948    5.27527374644608
H         8.38392539450360   -0.54498931752086    4.93329089886962
C         3.63072963726988   -0.54353139331924    7.15403690855838
H         3.93965054295656   -1.55968527805592    6.99467378807242
N         3.55613487909036    1.67375921348435    7.22767241378928
C         4.33172569741534    0.63514185200095    6.85274677459404
C         6.48560911057944   -0.12577273096373    5.83108021869858
H         6.19557471559946   -1.16030281321980    5.93588477489528
C         2.44623418250352   -0.08768722152330    7.70746796851193
H         1.61306190600182   -0.65654260533748    8.08104674144806
C         5.61710363478294    0.88898198931184    6.26467926786623
C         7.11774226612900    2.50688900498874    5.61220767652191
H         7.31794993927118    3.57093593409131    5.54967369391868
C         8.03100634319223    1.56489394705957    5.15880970688486
H         8.97275486611997    1.87103710344293    4.72810708140982
H         2.09786759413184    3.58461759359954    7.91543738376098

