67
CSD_code = DIRQED | q = 0 | S = 0 | Stoichiometry = C27H36NScSi2 | MND = 8
Sc        1.47059462921817    3.32208265586815    3.72114026680209
N        -0.01658004698209    1.91853708118403    2.44781544789576
Si       -1.58039371026963    4.86606034498449    4.61699106985395
Si        3.08205805126555    2.41358196294391    6.72727752865268
C         1.84053425901658    3.56119043474080    1.30257772335379
C         1.97859519410715    4.89449772514892    1.78272676995940
C         3.18331166016447    4.97837309297849    2.58097608787937
C         3.79954415260923    3.68201681181189    2.56921556746503
C         2.96245502771121    2.81715524943447    1.76606427182172
C         0.76218195937257    3.01844243794886    0.41128467855725
H         1.19534159091867    2.52538937363328   -0.46795663389685
H         0.13560426599941    3.83749178369225    0.04133496220300
C        -0.12380399666458    2.02257758816051    1.11801310194403
C        -1.02067245825892    1.24196521061081    0.38963959199429
H        -1.07697426221997    1.35750917819748   -0.68234228840729
C        -1.82573042529171    0.33448652208678    1.04786589030370
H        -2.52951493707120   -0.27646808917610    0.50257992959319
C        -1.70573129397805    0.22350561193047    2.42694333990124
H        -2.30764307565456   -0.47484041922766    2.98558118389854
C        -0.79270151390004    1.03179488645487    3.07532594801982
H        -0.66774659720997    0.97592037379687    4.14945272474505
C         0.29088608637985    4.84763521664141    4.82841129013550
H         0.50840939274596    4.78968994694525    5.90441235334730
H         0.68415613626579    5.82427629427835    4.49781950404822
C        -2.02263932446898    4.94504044504336    2.75009080608156
H        -1.83676032192003    5.93637058074131    2.34985543797130
H        -3.06888791099284    4.71333386210610    2.57490498389618
H        -1.42585231413446    4.23687935707680    2.17781197321860
C        -2.32503580918651    3.24866849031538    5.34103925884452
H        -2.71116818284766    2.59974706671612    4.56071437736835
H        -3.14344629668121    3.46038769954677    6.02094824809466
H        -1.57451434092061    2.69204880656128    5.89625568963374
C        -2.48974720417736    6.33284977990682    5.45529511178653
H        -2.35066937117491    6.31221393057849    6.53198054066433
H        -3.55842136187139    6.31068013915214    5.26164153362227
H        -2.11128263662488    7.28520777171220    5.09650722525375
C         2.32383137989038    1.80972166907737    5.10635840644820
H         1.58482915370269    1.02813252533195    5.33963062520647
H         3.10902974027558    1.31361250885488    4.51029931996865
C         1.71790499551462    2.53612321917083    8.06823761648925
H         0.85871869056119    3.09040782983404    7.70161467187474
H         2.07980969553590    3.03680676657038    8.96020176723540
H         1.37106582929871    1.55171939453821    8.36589536163160
C         3.83459638987179    4.15783321101338    6.45236540075553
H         4.81651291551881    4.08889927291946    5.99564354615548
H         3.95002953802894    4.70002427324562    7.38560831399243
H         3.20001559976849    4.75516404641804    5.79326192360599
C         4.48037915942102    1.29927554289926    7.42454454136629
H         4.11263013989228    0.30753195841979    7.66938165937445
H         4.91582492559347    1.71948943683408    8.32606294852740
H         5.27906315739776    1.18174131180354    6.69828759911215
C         1.24595345767442    6.07304153002099    1.53269526415149
H         0.36652101556169    6.04882034419433    0.90193826334266
C         1.67818564417812    7.26064997768111    2.06999286043904
H         1.12262750356162    8.16741804827652    1.87620393718961
C         2.83701267252439    7.33249710214965    2.85534386475316
H         3.14597593196246    8.28815958035771    3.25201563176068
C         3.59137680794945    6.20791045246282    3.10499558669828
H         4.50341168539394    6.27525837847987    3.68220174581511
C         5.01904504032299    3.20962104742695    3.06238230521098
H         5.66728959370642    3.86588708368150    3.62642995748246
C         5.39994002743576    1.91372001049595    2.79386758652911
H         6.34269037840989    1.54065630976411    3.16583092197002
C         4.58681490503336    1.06710138829876    2.02703912585052
H         4.92323027506445    0.05897870405521    1.82848725700326
C         3.38613727264354    1.49531168489751    1.51385176446160
H         2.78599146503225    0.83688618630070    0.89633472909561

