69
CSD_code = DIRQIH | q = 0 | S = 0 | Stoichiometry = C32H30N2O4Ti | MND = 6
C        12.28456733858387   13.41033684171768    2.64961455841315
C        11.02014896692567   13.96059319958458    2.35331038081042
C        10.30812184925974   14.60439323285694    3.35752295631990
H         9.34529491047438   15.03454498999659    3.11630518045960
C        10.79898772900605   14.71269857709043    4.64479461192929
H        10.22306195006143   15.21835303373778    5.40441019123431
C        12.03685978344825   14.16659286139560    4.94476580755757
H        12.43587614395507   14.24282611872423    5.94573456837798
C        12.76165229318101   13.52221536328023    3.96619762989809
H        13.73023430861894   13.09173751332707    4.18038506878634
C        10.41043410213427   13.94603429955972    0.96302430831385
H         9.32058175948237   13.80295638995584    1.07603950080748
C        10.62920593431115   15.29474278394833    0.30366731496172
C        11.93682915971063   15.67572160926881   -0.07430871174967
C        12.11649113025524   16.93961178152975   -0.65648182017488
H        13.12012199484934   17.22386791333015   -0.94019591895809
C        11.04887470218629   17.79017541574068   -0.85594323795082
H        11.21365542189303   18.75902335466003   -1.30446894592836
C         9.77033852086986   17.40886529001254   -0.48294969137308
H         8.93404233410211   18.07339344964539   -0.63639169379858
C         9.57261996782839   16.16499242987200    0.09227790917543
H         8.57496416239745   15.86696331453210    0.38715161901480
C        10.58594103244547   11.52732880322381    0.39030509950443
H        10.73631559407247   11.37024988479080    1.46861304695627
C         9.13006225061454   11.20391574790914    0.02845703807523
H         8.45122819884918   11.86076231878374    0.57471000853644
H         8.97961051805290   11.37406438182871   -1.04140347023022
C         8.80593463485195    9.75114409373139    0.36669898734213
H         7.77355988029655    9.52992045347407    0.09170960858867
H         8.90407087322852    9.60108640699175    1.44389592206553
N        10.96647677292355   12.90568431728201    0.08680241978719
H        10.66913614992053   13.12089338216990   -0.87024952247917
O        12.99860192075149   12.74357522705090    1.76204611445508
O        12.96450433451729   14.88433942776958    0.12477743112790
Ti       13.13718489839034   13.13716225956689    0.00018210249484
C        13.41035751964225   12.28468993458698   -2.64938129406505
C        13.96053927595814   11.02021521114835   -2.35317749279819
C        14.60415838552139   10.30816253449112   -3.35748713558444
H        15.03424954555982    9.34528782614884   -3.11635307185316
C        14.71235480636980   10.79905658379020   -4.64475736850488
H        15.21786318274311   10.22310554946269   -5.40445054316141
C        14.16632297283429   12.03698525795597   -4.94462843056760
H        14.24246634190527   12.43602109932741   -5.94559598094275
C        13.52212519649546   12.76180509009025   -3.96596318593799
H        13.09170048687256   13.73042857212762   -4.18006908743566
C        13.94606968178820   10.41046090168115   -0.96290737093098
H        13.80300031055512    9.32061096643729   -1.07595542327210
C        15.29482575710227   10.62920635541051   -0.30363803415089
C        15.67580537770823   11.93678042715027    0.07450604119649
C        16.93977249366773   12.11639505405810    0.65653002982899
H        17.22402513088130   13.11999103400794    0.94037075925117
C        17.79041594341753   11.04878588642850    0.85568257639778
H        18.75932509491746   11.21353479768280    1.30408772950931
C        17.40910476459253    9.77029653190115    0.48252967701327
H        18.07369144505947    8.93400244322300    0.63572971087890
C        16.16515644243872    9.57262488841850   -0.09254944370865
H        15.86713028177749    8.57500557038707   -0.38754889765013
C        11.52738334291902   10.58593812444732   -0.39022106142096
H        11.37036162372138   10.73638345363585   -1.46852839246821
C        11.20393800691273    9.13003518973931   -0.02850288124942
H        11.86083528056283    8.45123689263529   -0.57473906657922
H        11.37397663827186    8.97950586562298    1.04136364022629
C         9.75119850860215    8.80594581458789   -0.36692025016925
H         9.52994039683400    7.77354559204580   -0.09205509892762
H         9.60124925601018    8.90418895323709   -1.44412293365014
N        12.90573040603154   10.96645112177748   -0.08663969705577
H        13.12092230561704   10.66903011832417    0.87039110435675
O        12.74375039151485   12.99875520916815   -1.76172546569487
O        14.88436188274643   12.96446468052374   -0.12428003323055

