57
CSD_code = DIRSIG | q = 0 | S = 0 | Stoichiometry = C22H28N2O4Pd | MND = 4
Pd       -2.66355237321103   -5.57104693059353   -0.34932067500370
O        -2.67853332715425   -4.64694361393146    1.47464173409480
O        -2.59791793890464   -6.55519630498289   -2.15213072427880
O        -2.24240419419833   -3.59991176084287   -2.21091551492964
O        -7.46105765065667   -6.97447407714405    0.92595864986072
N        -0.68329327058215   -5.15136815810123   -0.46871807551015
N        -4.63654928038110   -6.00655387712458   -0.22372614434958
C         0.07663075133526   -4.91204626039002    0.54109515336016
C        -0.31945882152438   -4.81813430308989    1.90978102194585
C         0.68282671428933   -4.77610652400718    2.89409334389388
C         0.38926179707343   -4.58230947885171    4.21849880464818
C        -0.94098865450397   -4.38223010099962    4.59735385487155
C        -1.94160001437227   -4.39931187453857    3.66487094927567
C        -1.68686514446107   -4.64311020396738    2.28833264928545
C        -0.21424061332452   -4.94842892131409   -1.83089909186631
C        -0.83552522605112   -3.60677784252489   -2.29549202728388
C         1.30490578857503   -4.96884189398635   -2.04566078739958
C         1.66392028063614   -5.18881951260717   -3.51200797561942
C        -5.36997756844648   -6.43798654054413   -1.18893919724537
C        -4.96890087703788   -6.70484270235706   -2.53482032804332
C        -5.97267695259796   -6.99111233391813   -3.47557845072066
C        -5.67767237011480   -7.32058233338255   -4.77345016836351
C        -4.34074971891548   -7.39847755557307   -5.16854691266651
C        -3.33538702483277   -7.14086749442926   -4.27576286940372
C        -3.60031672196614   -6.77791566754031   -2.92968170170206
C        -5.16908188976709   -5.99563074103810    1.13379741131610
C        -6.69700840642887   -5.83522212184376    1.24885471710836
C        -4.63257482461484   -7.26942180061997    1.82008881166400
C        -4.82044708253901   -7.26285231081670    3.33177705387116
H         1.13756948191182   -4.71616213590104    0.37583249459806
H         1.71096692896665   -4.90948269826424    2.58425952993838
H         1.17311975557466   -4.56773305307222    4.96001963282848
H        -1.17975977739405   -4.21006375952772    5.63738644986103
H        -2.96941302158940   -4.23018978649011    3.95277703134692
H        -0.65787063263708   -5.75314520507543   -2.43312740143977
H        -0.49389260796242   -2.80131036819615   -1.63704693165002
H        -0.51813518087810   -3.38946571820582   -3.32354124898728
H         1.75227067962145   -4.03329348586147   -1.70197977973580
H         1.72797686540250   -5.79155660256946   -1.46437087965974
H        -2.58324960919637   -4.25985071200144   -2.83399558836085
H         2.74293610668465   -5.26435102586236   -3.62323755457014
H         1.31899164167045   -4.36648900087790   -4.13304757947315
H         1.21789294692875   -6.11011559711777   -3.87889037500894
H        -6.41608007416816   -6.67211870697716   -0.99157832278136
H        -7.25111745479258   -7.67537449484278    1.55261039596059
H        -7.00371828091526   -6.93968328791447   -3.15359421569326
H        -6.46549482190795   -7.52622844867228   -5.48154143398598
H        -4.09731513969431   -7.66696151258558   -6.18674224501328
H        -2.29879092502252   -7.21108843300805   -4.57406161861660
H        -4.72509173954447   -5.12677809634345    1.63510103919694
H        -6.92514519104165   -5.50615995437881    2.27118895986190
H        -7.02808741232600   -5.04973314995706    0.56408987019802
H        -5.10783822008047   -8.14907907672181    1.37420055459674
H        -3.55392376407437   -7.32508464772384    1.59224770896765
H        -4.38838389751331   -8.16194412281017    3.76513953001076
H        -5.87217178929775   -7.22557177003085    3.60948113047311
H        -4.31861025235266   -6.40196190797144    3.76562733616553

