79
CSD_code = DIRXUX | q = 0 | S = 0 | Stoichiometry = C39H29F5O3P2Pd | MND = 4
Pd        1.64142062662799    4.22536501717952    3.27196293313483
C        -0.04152374818441    4.86259452096026    4.26960743996482
C        -1.06803964345509    3.90838296616172    4.88234530881727
C        -2.28812990346737    4.82984141412898    5.12986883109914
C        -2.20294618655877    5.94169044035682    4.08537773344325
C        -0.89830329985434    5.67778856400327    3.29225170639735
C        -2.13548224984927    5.55258078970173    6.44942773050291
C        -2.05206194518924    7.20665148245114    4.89617524803489
O        -2.00058719792465    6.90077636033560    6.22839608466437
O        -2.10712272472259    5.09361448086608    7.54680736303512
O        -1.95441787464727    8.32845031485069    4.50489262135005
P         3.46932179804350    3.82701771771950    1.92326987933306
P         2.70393988312871    6.15773686417653    3.79475901911016
C         4.64070245382539    5.20363252993553    2.12624682514111
C         4.26537290716653    6.24969457209867    2.86030348627435
C         4.48557472489860    2.34743761429062    1.72516125785324
C         3.96034421873953    1.27099210578576    1.01216212483759
C         4.64427724050305    0.07160882127153    0.97032087828578
C         5.84497739816582   -0.06475691357585    1.65034385723586
C         6.35858177221794    0.99677488780622    2.37768038950635
C         5.67729267033995    2.19928487718493    2.42731705881640
C         2.88053324366398    4.22479881606854    0.24678537241867
C         3.62823441441663    3.96506705691408   -0.89657422443542
C         3.13003287866975    4.32628974086379   -2.13527519944879
C         1.89686110841603    4.95140083636839   -2.23558729713395
C         1.15538405786043    5.22068109071220   -1.09596443108039
C         1.64473039890842    4.86099681753594    0.14666246234440
C         3.37425825644480    5.98046786705034    5.47238625607505
C         3.16520394316921    4.75852655802005    6.10613184832408
C         3.68893339227518    4.54190373728901    7.36836691903196
C         4.42030528316252    5.53932719191036    7.99304977918111
C         4.63099456789408    6.75511647256175    7.35967158783382
C         4.11339652619199    6.97995999952250    6.09762703576035
C         2.05179859646658    7.84217160669955    3.71444907698288
C         2.04000163107063    8.49785368433545    2.48555850512711
C         1.43391748377853    9.73467129061928    2.37151993462332
C         0.82325628235770   10.31202393499614    3.47386817587388
C         0.81703922898864    9.65395138393219    4.69288323033421
C         1.42428380010215    8.41814605301369    4.81542035553530
C         0.93771321161705    2.39569388964046    2.88293984642946
C         1.68345132850363    1.40187524681765    3.50092431251429
C         1.54690234038399    0.05121825755329    3.23027677516809
C         0.60779728130222   -0.33923570812626    2.27883566176805
C        -0.15532271356722    0.62068073267509    1.62121878994047
C         0.03111730116884    1.96226967509976    1.92862586518692
F         2.62638140201459    1.84043211731916    4.38613438710090
F         2.30730072328589   -0.87156541480117    3.83983793969484
F         0.45398851665344   -1.63850733312285    1.98082507510737
F        -1.04246273309875    0.23929441804864    0.68799412510514
F        -0.68380253404513    2.90577419798412    1.26857323723195
H         0.27202285065636    5.54625194763983    5.08626656718895
H        -0.72485270157430    3.44470750162138    5.80772671397119
H        -1.35704971276070    3.12461692515485    4.17975233001335
H        -3.22305867285748    4.26834704197257    5.13478889220591
H        -3.06695069805254    6.03052721557374    3.42666012306360
H        -1.14398470614430    5.08600374329581    2.40541528896368
H        -0.42896779049283    6.61705890665106    2.98287776819087
H         5.58322226878314    5.16431460514526    1.58988949800549
H         4.87803589053448    7.13812925783271    2.97570928938619
H         3.01533393438101    1.38674486457039    0.49500858257582
H         4.23751036288366   -0.76175854694399    0.41711391080002
H         6.37403966176362   -1.00531814860232    1.62322671417513
H         7.28665934558173    0.88231465922046    2.91803345307488
H         6.05790086353414    3.02361574110096    3.01615626011552
H         4.58682486323944    3.47103023826802   -0.81400488626825
H         3.70476084275303    4.11854209935436   -3.02582700818447
H         1.51216504122104    5.22646583782084   -3.20627608933268
H         0.19343313074251    5.70394185790469   -1.17677116677636
H         1.05973012572096    5.05989433791867    1.05413553703687
H         2.57708896715640    3.98362632315382    5.60384993152767
H         3.52607496473804    3.59695865922062    7.86415220294109
H         4.82754153496966    5.37164073886099    8.97899550668131
H         5.20057856760680    7.52942938116119    7.85240337286109
H         4.26842782622902    7.92855213784371    5.60118074109455
H         2.50221963541292    8.02602141832245    1.62627138528693
H         1.42819168173386   10.24516012902316    1.41958403648265
H         0.34065023127998   11.27264264745397    3.37995853554553
H         0.32574098175587   10.09710393688880    5.54480975229158
H         1.41429057135026    7.89549089739079    5.76276957763490

