44
CSD_code = DISDEP | q = 1 | S = 0 | Stoichiometry = C15H19N5O4Re(1+) | MND = 6
Re       12.50728063090557    3.42667863016264   10.33235225404697
O        13.84649272943244    1.74831829815556    8.10842208840893
O        15.17395939289162    3.95926615823236   11.79678725639000
O        12.65271137480458    6.05953270639720    8.71872759930477
O         8.83837439186528    3.03792695818858    6.17045167167763
H         8.01258743996186    2.84969696872606    5.71207329646094
N        11.24940382039514    4.30385042418132   11.81537477049952
N         9.28009843016748    4.74909106339292   12.67803596911134
N        10.24023353108721    2.90071052735183    9.59131791752701
N        11.97463815869038    1.68725103430158   11.44914168628586
N        10.56440104082212    0.10479575395186   12.02209655637279
C        13.39392228640303    2.39736477430682    8.92918479975869
C        14.21047013694223    3.77417696492854   11.21524387043155
C        12.64895609830294    5.08399922852003    9.30842506124317
C        11.43760635236079    4.82007215960118   13.06005991316497
H        12.41886179991932    4.95651491308455   13.46754474567192
C        10.22172935609122    5.10405261140239   13.60420920224392
H         9.95704081156016    5.52233595733828   14.55229003043232
C         9.94524990410866    4.26268689747009   11.61003295971866
C         9.33975205079298    3.81755373822061   10.31816225412367
H         9.18705688728626    4.70928466156393    9.69726679413767
H         8.35438489639820    3.36346608475928   10.49687266465890
C        10.00018391189292    1.49512286622168    9.97329140203688
H         8.93532605641632    1.30192548795983   10.16728512945387
H        10.30690347009291    0.85789358493436    9.13428630589404
C        10.82230063838291    1.10976731968776   11.16010896713716
C        11.60989980775797    0.05929589503498   12.90265837503706
H        11.65388950599761   -0.65653803081759   13.69611612495149
C        12.47516161457196    1.04682735900183   12.54009698221191
H        13.41139149701566    1.33096014305886   12.97629237907661
C         7.85800078739892    4.91581294000839   12.81074960142953
H         7.47689151214491    5.58805370248649   12.04005644810282
H         7.64094277633561    5.34431980279001   13.78656519807285
H         7.34441285510699    3.95570303849897   12.72882326239391
C        10.09801153104788    3.07515851342388    8.13597772720994
H        10.83175681708497    2.44281029098888    7.62983331847257
H        10.34187434055485    4.10859990700843    7.87713529904885
C         8.71707663416001    2.76000976405938    7.53840063398523
H         8.44962395604743    1.70454234722457    7.70070179180872
H         7.93715821997963    3.38829925908923    7.99626907122951
C         9.43834031724668   -0.78927603565002   11.99929307299321
H         8.50116104249600   -0.23676655456771   12.09273339249661
H         9.51874006612380   -1.48193478887214   12.83407344652513
H         9.42084112095304   -1.36111332580541   11.06967870876191

