63
CSD_code = DISDIU | q = 0 | S = 0 | Stoichiometry = C25H27CoN8O2 | MND = 6
Co        8.04546225872832    8.19573629947491    7.38146440217187
O        10.84577137555746    6.50747842867386    5.14846355139972
O         8.04864793352918    8.35434828760914   11.33524718164919
N         7.72107228368776    8.16397836848995    5.39692172564467
N         9.56935291310156    7.26108606652354    6.92461464578345
N         8.62114382923009    7.99933410839496    9.12224182729307
N         6.58305435523239    9.26647410164751    8.23522532757232
C         6.73168222322023    8.60976712079088    4.62960847405450
H         5.83036463088778    8.93478597371101    5.12977995225869
C         6.79492492981239    8.65886081112068    3.24769135272035
H         5.95817006024664    9.04173546105037    2.68499084198677
C         7.94562402904440    8.21463794515950    2.61118962534475
H         8.03443001269927    8.25404348352812    1.53621128543893
C         8.96325284409581    7.70776739060408    3.39411167340880
H         9.88005072392019    7.31433278327644    2.98336912370303
C         8.81752342492934    7.69636100265551    4.77688154807309
C         9.88695366190332    7.09442410103746    5.63922374691346
C        10.34384195290230    6.87889045455319    8.01145634786166
C        11.53706722258997    6.17243306024575    7.97692503955625
H        11.94423907801423    5.87284850444363    7.02492660657040
C        12.20160394077038    5.86893685665185    9.15756010008260
C        11.66737803198789    6.27428487199102   10.38626536331754
C        10.47323384213930    6.98138452071367   10.42516142231329
H        10.05690286125169    7.30462252425868   11.36545259979329
C         9.80670624713138    7.28751279009386    9.24782938346799
C         7.89332603795852    8.49251910224424   10.12615760118051
C         6.75823225117800    9.29731776866228    9.56769069316958
C         5.96938474183686   10.06742061602458   10.41448697908372
H         6.17795447714079   10.02330049809859   11.47222906998866
C         4.97345522737665   10.85827229490170    9.87709879171769
H         4.34583920826407   11.47036930068688   10.50667151876780
C         4.81546168375180   10.85621547903420    8.49834695327309
H         4.06858230978634   11.47119735681322    8.02154509024174
C         5.63895823380578   10.05313148385550    7.72807396866207
H         5.53442558995409   10.06294876258251    6.65376923821303
C        13.49472518214637    5.11324347475680    9.10183995457531
H        14.30143317125153    5.70454633187110    9.53404407154479
H        13.75300154851651    4.87552623785716    8.07354371305640
H        13.42552201081720    4.18450520137670    9.66835195786184
C        12.37977072384991    5.95994358210879   11.66691024171188
H        13.37374184204477    6.40628470923222   11.66987627220394
H        12.50045851712500    4.88353553354364   11.78944403680004
H        11.82427613179153    6.34674910455134   12.51685790498664
N         6.86417785508260    6.36375017272630    7.53241510607213
H         6.02101348518701    6.61845296338862    7.01104288938092
C         6.41795458757712    5.97301834416190    8.87724704939565
H         6.00296041818490    6.84475566420145    9.38719369998066
H         7.29108599277390    5.63654609603581    9.44063683488487
C         5.36857960347195    4.86253272696612    8.83222596651352
H         5.07563048729725    4.60696435666243    9.85096625242959
H         4.47728997288372    5.22128017951927    8.30827166515721
C         5.92865276451234    3.63928720054597    8.11432998689870
H         5.16411734035395    2.86511830107307    8.02945482847380
H         6.76072220906961    3.22981022799138    8.69004041706834
C         6.42293928897830    4.05216287493702    6.73202966251762
H         6.89337594537702    3.20834328012417    6.22644901964758
H         5.57619397365710    4.37807008472886    6.12005506433496
C         7.43487116803571    5.19120511191360    6.85328144485083
H         8.30360381504772    4.85924062334182    7.42624028781886
H         7.77814376619876    5.48144681877854    5.85835675995721
N         8.93615918074420    9.79778917729640    7.16032473063427
N         9.97196285815305   10.16668320182882    7.57125082965761
N        10.93266173220703   10.68005043887944    7.88083629890810

