33
CSD_code = DISDUH | q = 0 | S = 0 | Stoichiometry = C17H10CrN2O3 | MND = 9
Cr        8.19456222755949    1.68499402121657    1.97530304163471
N         5.84536662362002    2.46375324632656   -1.18996144575658
O         9.71405206327590    1.35400084354236   -0.56507004823570
C         9.55539480217097    0.68702871679723    2.67172425941964
C         5.96826821753683    3.18257694645121   -0.08607774916699
O        10.46324342477759    0.10817973267470    3.08500257677928
O        10.28857080566281    3.77349968037587    2.30467127472336
C         5.83378364743432    4.59799744552033   -0.14004790007324
H         5.91412022517708    5.21320750310926    0.74620404463759
N         5.59721903758875    5.24113477902220   -1.24474189646825
C         5.48710968566377    4.52081014436555   -2.38385517187131
C         9.44689255363028    2.99234700817789    2.19234048530890
C         5.24012004985771    5.16672560407124   -3.60799041062534
H         5.14758809756753    6.24152450689849   -3.60984737441084
C         5.12761171150761    4.42608030515535   -4.75315346775022
H         4.93962141017623    4.91474870560547   -5.69764679741347
C         5.25555948875227    3.02668451540099   -4.72051583138978
H         5.16463307478204    2.47002877517413   -5.64167149028099
C         5.61455772953232    3.10359876279018   -2.34785278476939
C         5.49309408885547    2.36961899344100   -3.54551603251105
H         5.59782894512577    1.29678501196064   -3.50212026504248
C         9.09247949688121    1.45978440647276    0.39812737352220
C         6.42047485680932    0.25732672375468    2.23499650440977
H         6.34013487065326   -0.82197065407849    2.19172469473731
C         6.66235252472926    0.89470127040710    3.46984461303335
H         6.75374034520263    0.30114887201665    4.37197887002045
C         6.64109682000463    2.28781458609420    3.55113699482070
H         6.73276478745639    2.77927810637567    4.51240363048481
C         6.46486110626999    3.05907856584752    2.39044057915027
H         6.40886636669207    4.13623057693660    2.48944465704389
C         6.22884516362106    2.44325692371535    1.14543517751376
C         6.23128999469707    1.02161366497691    1.09118060023684
H         5.98719575672809    0.55711170940424    0.14380928828851

