50
CSD_code = DISHEV | q = 0 | S = 0 | Stoichiometry = C23H20N2O4Pd | MND = 4
Pd        3.51083955917518    2.54956376636145    0.14987635682764
O         1.62086057053167    2.52947793091711   -0.52802447447726
O        -0.93377114419058    5.97504940204596   -3.94314335703368
O         3.14273546764575    0.79672493361144    1.05742528130699
O         6.52274628848462   -2.51906114534844    3.82084465879579
N         3.93337214069100    4.24165948676599   -0.72189500091697
N         5.36232865795883    2.61633068374190    0.76238032027876
C         1.11171207849512    3.40159921700561   -1.31092743936350
C        -0.24869031835133    3.22595016222033   -1.70743274564681
H        -0.76033731761236    2.36713519665991   -1.30111286693089
C        -0.87603031378340    4.07988366737251   -2.55837843235365
H        -1.90301827659156    3.92819305782448   -2.85212617542447
C        -0.19609254845024    5.19910609621650   -3.09184207515443
C         1.10380708568818    5.41955876874351   -2.73024021093400
H         1.64896283691588    6.26899076229560   -3.11365018711383
C         1.79305960611412    4.55251904888770   -1.83921980128724
C         3.12461686708306    4.89242692148930   -1.52246646443776
H         3.49104667341020    5.79672160541837   -2.00690994408378
C        -0.31119879295218    7.08613734467894   -4.53459914255448
H         0.00638255720134    7.81764740180508   -3.78357238743403
H        -1.06239622063714    7.53816708708912   -5.18041015224312
H         0.55292063950691    6.78846639051335   -5.13845357891941
C         5.22889404956270    4.66831720966242   -0.43546768656709
C         5.79924905095443    5.87256479225678   -0.85363735716590
H         5.23497932741230    6.57200056788394   -1.44988353882973
C         7.09015536972831    6.20206778268301   -0.50025392426073
H         7.50997258822219    7.13999433050912   -0.83196167619966
C         7.85912476425055    5.34900289480388    0.28783624643093
C         7.30472625641739    4.15522228308545    0.71515543871152
H         7.90317273251444    3.51189871211323    1.34155476365686
C         6.00263513874972    3.79007890752242    0.36778475370284
C         9.25326738508056    5.73711388583646    0.67397317283305
H         9.75397027039483    4.93045661980781    1.20262947140049
H         9.23380746227288    6.61418335281715    1.32022480534482
H         9.83545048679915    5.99025438748372   -0.21052452487416
C         5.96408269671000    1.65685462435707    1.42321356633722
H         7.02297584071465    1.76953581983781    1.65270923261179
C         5.38494204651102    0.46068926897085    1.89382196636089
C         4.00384115122857    0.10775231343279    1.70181148373165
C         3.57319719313221   -1.12676292795462    2.27653212456125
H         2.53430576872953   -1.38389481041814    2.13863613603747
C         4.41622230696636   -1.94767558482294    2.95593903624531
H         4.07445367393864   -2.87857729551772    3.38107504530582
C         5.77809402221782   -1.60602687830954    3.12633643703583
C         6.23655936662799   -0.42848820715312    2.60495239628965
H         7.26908785649056   -0.13553184059386    2.72250303698318
C         7.88849362807873   -2.25336875089628    4.01093221290042
H         8.41909457521197   -2.17310724495119    3.05598710280155
H         8.28082492270431   -3.10154477240095    4.56977258173488
H         8.04396397204597   -1.33655722636204    4.58992551597944

