49
CSD_code = DISJOF | q = 1 | S = 0 | Stoichiometry = C20H21FeO7(1+) | MND = 8
Fe        1.61908058509866    1.27882775044039    5.16844332670010
C         2.93350374600364    0.05690820080911    5.35115520595013
O         3.73053654700424   -0.72844893925092    5.54175458269759
C         2.32118033972674    2.58872729743247    6.15643850785110
O         2.80356587049224    3.38425042075124    6.80557286750944
C         0.70161307246599    0.74356311029878    6.59481173245675
O         0.15461179958238    0.36807429236708    7.51551770297846
C         2.35251110597637    1.34433734837255    2.58298983370145
C         1.71598187905769    2.44684856859859    3.14986289440993
H         2.19739110382099    3.41772020095492    3.10759514405652
C         0.37654748746388    2.40422587590769    3.67093706580697
H        -0.15975254115830    3.33631012215063    3.78057802365918
C        -0.26765284785498    1.15195658086523    3.81539204969132
C         0.61516635209339    0.02692279759186    3.68964409165844
H         0.15617150579351   -0.93831532806775    3.88064807950218
C         1.54982112240355    0.06869207629800    2.49785137283123
H         0.98829041406094    0.07082831338175    1.55201436026650
H         2.18327688831815   -0.81533007610687    2.47965556898419
O        -1.51710179404568    0.94096089289084    4.20365783723167
C        -2.31693955196184    2.03272469457590    4.63401231155058
H        -3.26335623780437    1.59673348965948    4.94597315089830
H        -2.49496047935066    2.74082221549357    3.82184223091990
H        -1.84938040673150    2.54372965438318    5.48074667635658
C         3.65490531099563    1.41373801852527    1.95335980418143
C         4.08945909908642    2.50354134562996    1.17738613773202
C         5.35092560501174    2.46128476939857    0.59734501623077
H         5.65319682420187    3.28777367671732   -0.02664235251295
C         6.22379588324681    1.39698444510071    0.77982588142960
C         5.79271402663864    0.29239040590897    1.56960825372476
C         4.52777226441718    0.31721987648567    2.11117504093521
H         4.21365975849485   -0.50535856891806    2.73209007559763
C         3.22858815954469    3.71137508098210    0.88237570095679
H         3.57086605020593    4.18138156606098   -0.04852080668160
H         2.18142145863515    3.42270300392673    0.75881164206619
O         3.23713237000734    4.66887685022241    1.92672447621387
C         4.44128966467642    5.39365917625351    2.04229451114145
H         4.27896851196350    6.12822857476440    2.82790911858661
H         4.67861151388607    5.91071792283402    1.10698126763296
H         5.27692938629453    4.74188250926400    2.31850973062981
O         7.45526838704183    1.30149664183001    0.27558261310752
C         7.97642612502581    2.35399651464143   -0.50854085836375
H         8.98102080342017    2.04015743329044   -0.78465730209476
H         8.03146635421028    3.28653579707590    0.06007201074869
H         7.38355160356458    2.50778977577333   -1.41448185034389
O         6.69319692502985   -0.69541876854527    1.71546376709064
C         6.34957940165257   -1.83780601957280    2.46759669241166
H         7.22462458677470   -2.48321186768210    2.42966021644141
H         5.49490973320135   -2.36263645916081    2.03019718863472
H         6.13441423231319   -1.58297126059473    3.50977940682908

