74
CSD_code = DISQON | q = 0 | S = 0 | Stoichiometry = C35H35ClN2Pd | MND = 4
Pd       10.67242113215398    3.03558970588519   11.03495001110510
Cl       12.22804490679010    4.33575284006374   10.19401104168166
N         9.12379529052376    1.99527427326751   11.63859610388446
N         9.75564805642984    2.54500068886079    9.09874604630204
C         7.18472029202426   -1.70268038897464   10.59498547629198
H         6.87407965684863   -1.84906238510132   11.61950210743574
C         7.48682564594798   -2.78954906064377    9.78632462476115
H         7.41176596815508   -3.78935965144779   10.18643623089649
C         7.88651759380044   -2.59925270086519    8.47506184498421
H         8.12323685359935   -3.45149939221301    7.85626089545101
C         7.98700337590433   -1.31951964353754    7.94746768776643
H         8.30106458799365   -1.17007595388256    6.92482780301469
C         7.68301925977830   -0.23728121618026    8.74825620547884
C         7.28490261498667   -0.42905018669975   10.07228728549809
C         7.02672224010551    0.85631443557585   10.82377615495322
H         6.71785958041549    0.70354622223947   11.85817891767579
C         6.03272035484860    1.64140999625959   10.00335185256239
C         6.41416443364315    1.82197530060048    8.67288809184770
C         7.75332273136826    1.21209192294888    8.33385792336539
H         8.05549517918780    1.35821743108918    7.29651499671732
C         4.84617807926311    2.17115607138757   10.46804278636925
H         4.55554841364962    2.03477655195891   11.49962367340947
C         4.03542399988407    2.88151738676731    9.59377526477136
H         3.10668425118742    3.30163264781069    9.94908115828186
C         4.40915769088991    3.05337352136036    8.27248252885440
H         3.76996768648771    3.60512504599618    7.59996829121634
C         5.60343017214222    2.52413671586355    7.80355880868716
H         5.89393122218087    2.65664468648542    6.77130530503865
C         8.33071522376726    1.61043849803472   10.69339949256569
C         8.70265789866561    1.85106832316532    9.32463310233035
C        10.29274388673743    2.77836883841332    7.83048273622096
C         9.82669319912321    3.82882816981313    7.03945295436662
C        10.42969105078388    4.04392918557484    5.81081521964409
H        10.07974967818539    4.85739202599936    5.19086671464821
C        11.48105150013216    3.25249148992919    5.36992403202398
C        11.95600775787729    2.24383785308871    6.19915997484080
H        12.79924777733627    1.64722442127682    5.88119387711163
C        11.38396726343471    1.99793096104474    7.43429394364824
C        11.90567045146152    0.95442996030390    8.37687611685282
H        12.85641445275099    0.55949733530884    8.02904565560925
H        11.19854475829240    0.12764991756799    8.47930028264842
H        12.05274901100478    1.40347566758654    9.37716620806186
C         8.74965986641699    4.72441943954136    7.57379645660602
H         7.79169253481024    4.20645204736602    7.64159524489023
H         8.62671148011060    5.59950059807178    6.94122295213489
H         9.02230262700471    5.05234218406257    8.58107401405356
C         8.76907580157480    1.79315383965016   12.98241639217207
C         8.09603494727398    2.81224417003116   13.66175164518643
C         7.76049352036957    2.60916445029011   14.99046580515883
H         7.24040548493195    3.39057351563179   15.52571437538475
C         8.08667199082740    1.43004607072075   15.64694075310267
C         8.79371463248226    0.45136980204974   14.95887033282784
H         9.08132152505264   -0.45505422316116   15.47219174058565
C         9.14901683081932    0.61554778954555   13.63062027675835
C         9.96616735621167   -0.39319964847446   12.88248073584235
H         9.36770954825567   -0.90458742089874   12.12689635102126
H        10.37828187570943   -1.13638849951692   13.55957821534609
H        10.78741531582717    0.11740495181520   12.36627184191217
C         7.80754106382579    4.09444367939707   12.94137179336406
H         8.72103090640447    4.44034018235738   12.42618900914585
H         7.47956150601285    4.86364250196851   13.63516724536367
H         7.03214349870003    3.95311689233071   12.18572076932920
C        11.54310379427861    3.31425604148191   12.87741377336135
H        11.58727457005688    4.38550634260640   13.10389185877248
H        12.57270007058819    2.94026369100064   12.81635624020424
H        11.02176750367570    2.79888757610742   13.69096445329159
C        12.13336185150882    3.51342241950616    4.04568477810723
H        11.45604979121175    4.03461753036164    3.37320079962811
H        12.44919689809315    2.58279982237908    3.57870175022407
H        13.01788256102838    4.13554147042462    4.18498491240385
C         7.72730590334011    1.22781750092212   17.08787289849639
H         8.59861922848985    1.40830580107009   17.71774356267174
H         7.39500272048993    0.20666629138532   17.26355759843890
H         6.94022761487402    1.91271567800510   17.39296199533699

