56
CSD_code = DISQUT | q = 0 | S = 0 | Stoichiometry = C29H21Cl3N2Pd | MND = 4
Pd        8.87784109798447   15.73432158913045   15.82079255934055
Cl        8.87300874844689   13.81853878976997   14.78213390329445
Cl       12.90372713715545   14.24683599759012    9.83214676091344
Cl        5.35216452229494   19.14256880659399   21.06837772037154
N        10.19284866164349   16.81789964671706   14.37071660204507
N         8.77734913435351   17.59738095541123   16.52569187324905
C         7.88258520577552   14.80536844405670   17.36370529506706
H         7.98892760787767   15.37832361021787   18.29266947981364
H         8.29225575274162   13.80153717005003   17.50916459301324
H         6.81934465302982   14.70864251157091   17.11024133245534
C        10.85572472536007   16.26736683958814   13.28525901770604
C        11.57280472613628   15.08395915045158   13.48757506760852
H        11.61764240774265   14.66426426285925   14.48561004914142
C        12.20786631450221   14.46756604617256   12.43055687332775
H        12.76423334012679   13.55676820012090   12.58404869761784
C        12.11324251194246   15.01900033279318   11.16019931481364
C        11.38102020152761   16.17565280605039   10.93866951818863
H        11.29595784537599   16.57773402398414    9.94122405642137
C        10.75848988182257   16.80351922256063   11.99931430397088
H        10.14914722332522   17.67929367417930   11.82856392358446
C        10.22938547891703   18.06185152816579   14.71293929870052
C        11.02626732114889   19.19533669654244   14.10246692386433
H        11.69627165389662   18.87509076987485   13.30563455403302
C         9.96759114805112   20.17600744430321   13.65561541295845
C         9.79103073029397   20.65055154262019   12.37175767111649
H        10.45155776934192   20.33764006115612   11.57616564866722
C         8.75691092909691   21.54089805404061   12.11938815770069
H         8.61082557050798   21.91890170061331   11.11894059390750
C         7.91327478430864   21.94475177460594   13.13937525605293
H         7.11029375793993   22.63527396352339   12.93099756165577
C         8.09091967675678   21.46926062570704   14.43114905914662
H         7.43307188338787   21.78463783542152   15.22762513765316
C         9.11981963654961   20.58550548273225   14.68483285020712
C         9.44988803757971   19.98287922605795   16.03047043644284
H         8.78997694041956   20.32788950281332   16.82571445151365
C         9.42501294224446   18.48353151668352   15.82920159393295
C        12.80313679683567   21.08301888571045   17.49049899970285
H        13.22086288588494   21.56597295107921   18.36079207380536
C        13.63731197222850   20.65381509433456   16.47284664570068
H        14.70334090643920   20.80270552156547   16.55318816208261
C        13.11472395202507   20.03213923895450   15.34759017519091
H        13.76589827057206   19.69623666558435   14.55416900600550
C        11.75005741039960   19.84763471348429   15.25644880897278
C        10.91029199586116   20.27963780679949   16.28276392602169
C        11.43090852997635   20.89601239661384   17.40231537325531
H        10.77811784310378   21.23131154815472   18.19511535340112
C         7.98180415421640   17.98681026344457   17.60979079726238
C         8.53566710873408   18.57811019195160   18.74426152277828
H         9.60342184853398   18.73497574315055   18.79480886117864
C         7.72800856353860   18.92492579983753   19.81091802137892
H         8.15542383416826   19.37172736973032   20.69457170336581
C         6.36232389526383   18.69723398076038   19.73940702550462
C         5.79821397282835   18.10975092513598   18.61513111405075
H         4.73524255704232   17.93312177484869   18.57497335388297
C         6.60724687126384   17.75049594323237   17.55677042439938
H         6.19261667147696   17.28111338089487   16.67210310256083

