42
CSD_code = DISQOL | q = 0 | S = 0 | Stoichiometry = C19H20FeO2 | MND = 8
Fe        2.14521162957613    2.41152609353434    0.54762709915258
C         4.13214071305549    2.45728039649027    1.47306420858131
C         4.30537020591232    2.15754507989047    0.08151342002356
H         4.91330802082766    2.72742137632145   -0.60218395467529
C         3.71862535108540    0.90344665314272   -0.19602565705185
C         2.52158887679992   -0.90970189286014    1.27065761919637
H         3.31630589932770   -1.66310458686616    1.21581658128761
H         1.77863241235950   -1.16495856169689    0.51132779719910
C         1.89099226297320   -0.93082019788194    2.66170938329752
H         1.59129810581991   -1.94900069457395    2.91604199837613
H         0.99737144829117   -0.30223347503675    2.66226361093951
C         2.88188008526508   -0.39943899226767    3.69605767218748
H         3.82862755063687   -0.93528673865326    3.59291515587239
H         2.50499275574792   -0.57561720363193    4.70483150415251
C         3.11492430104865    1.09952825468516    3.49405296089890
H         3.95627536742409    1.44429622459151    4.10190565096549
H         2.22837498550847    1.64387295383255    3.82844633459225
C         3.39464494998314    1.37992310467923    2.04441878441251
C         3.11360230630682    0.44087994247253    1.00651200262294
C         3.82044537825474    0.14212362569994   -1.47695718424963
H         4.56668487143950   -0.64823377447608   -1.37525724566182
H         2.87285370687269   -0.32533639824685   -1.73615568251311
H         4.12230647720502    0.79689008126979   -2.29094508950411
C         4.75869246812506    3.56606227103414    2.19702670066265
C         4.06058545998063    4.25922882737481    3.18387761245470
H         3.02838693181477    4.00135164388804    3.37449464855816
C         4.66534115797563    5.28826698408445    3.87918803388262
H         4.11197252549483    5.82177588455095    4.63808135461500
C         5.97522615994389    5.64327997757423    3.59914426544423
H         6.44652752840664    6.44921307871618    4.14183935008771
C         6.67489708793078    4.96560305170761    2.61529018908425
H         7.69492831839739    5.24146169613271    2.39006725990063
C         6.07304462211689    3.93398688349562    1.91871327032846
H         6.62590999604383    3.39978869700322    1.15953963227215
C         1.03230923108325    2.06800262987021   -1.08786763530730
H         0.74914715745091    1.01503279376928   -1.07986451638831
H         0.12295580153498    2.64904324703982   -1.22096796819923
H         1.66850933800786    2.25063090198657   -1.95377859341688
C         1.89642109430718    4.11343807490024    0.29136565239380
O         1.67538379510233    5.23165025625608    0.16244857664342
C         0.66195204710856    2.42030504640605    1.44527395197770
O        -0.32024838254758    2.48717678379091    2.03729124490349

