27
CSD_code = DISSON | q = 0 | S = 0 | Stoichiometry = C6H18P2Pt | MND = 2
Pt        0.00101466201025    0.00004052885852   -0.00048494818097
P         0.98422317689145   -0.00016903036119   -2.01052538400958
C        -0.10370073404708   -0.00048412985660   -3.49546403149215
C         2.09261940083628   -1.41014989166626   -2.42565857472463
H         2.90126061574954   -1.45681012953125   -1.69965139896050
H         2.51105136966434   -1.30306285618339   -3.42545769090362
H         1.52899469637307   -2.33871783484958   -2.36821248655365
H        -0.74075191560488    0.88094960203018   -3.47331975076632
H         0.48071392760102   -0.00059075924667   -4.41445637030803
P        -0.98440380656266    0.00020247830185    2.01047964605853
C         2.09239154701674    1.40984647042185   -2.42616952168845
H        -0.74060793326622   -0.88201378123783   -3.47302142006461
C         0.10358708976446    0.00037185120308    3.49538921779808
C        -2.09261435487801    1.41024271609595    2.42593086424635
C        -2.09254618976175   -1.40982846517092    2.42612779254278
H         2.90107706687454    1.45684757389556   -1.70023235203350
H         2.51077788783802    1.30250326142761   -3.42596030991560
H         1.52865846947338    2.33836634678603   -2.36898979367119
H         0.74060902926858   -0.88107827168076    3.47316124076017
H         0.74054671102715    0.88186490644350    3.47303233823368
H        -0.48078038389543    0.00041712061052    4.41440517396043
H        -2.90125114330567    1.45700206462548    1.69993428977135
H        -2.51102186719377    1.30308266466058    3.42572965178447
H        -1.52892133339073    2.33877369583590    2.36852106572960
H        -2.90119580988690   -1.45671337339905    1.70015461873440
H        -2.51093085421725   -1.30256107572923    3.42592446001824
H        -1.52879932437848   -2.33833168228391    2.36881367363474

