73
CSD_code = DISVEG | q = 0 | S = 0 | Stoichiometry = C32H24F12NiO2P2 | MND = 4
Ni       10.89203913766267    4.02561785029663    5.40034272529724
P        10.83661127618793    6.19273101941191    5.12600336824152
P        10.75918084285610    1.88979495786367    5.33828905784447
F        13.79208680264855    3.63298412285908    1.94516390052078
F        14.29027246170818    5.72682739127382    1.94401417264416
F        12.39935014346375    5.06614029810471    1.17663681259177
F        13.24007711805155    4.70955178101758    5.81903413570130
F        14.45483002958222    6.12720370085107    4.74589642471681
F        14.69083946621642    4.02508879750075    4.38483083692234
F         8.60434369174228    4.00771136115943    9.38233742998685
F         7.43841374694960    2.81535018546509    8.03653162662903
F         8.65297002798384    1.86253904193804    9.52750144996515
F        11.38485032792579    1.64652924446754    9.03876533963940
F        11.23030693561107    3.76275525589698    9.34329665502585
F        12.13091221613601    3.00423911916525    7.54236661659922
O        11.80567154927374    3.98305969024125    3.75508526959321
O         9.73198927024492    3.94428346181351    6.87558572253158
C        11.93002946915921    6.38377397386121    3.63292437066041
C        12.64958106617268    5.01849762666228    3.54708838318709
C         9.68748921020785    1.52697330112353    6.81693340638435
C         9.78322125634996    2.83001573297803    7.64446180425180
C        13.29222931347163    4.84970444364153    2.14973277404247
C        13.78532434238288    4.97489130818575    4.60861782045157
C         8.61968585275392    2.89025889269752    8.66038418782622
C        11.12452425785969    2.80806958660714    8.42179086207415
C         9.29679029045590    7.05580105407981    4.69842938638056
C         8.14908441267739    6.60248706307841    5.34377636552074
C         6.93583919891151    7.22556437319420    5.11624566203097
C         6.86391718311014    8.29960426341354    4.24331217354158
C         8.00393686690866    8.74711554743414    3.59524388041018
C         9.22197232536538    8.12948789520983    3.81891587632043
C        11.58026666370924    7.31319613083557    6.35313046102943
C        11.77891713978931    6.82636372789314    7.63933281413425
C        12.33554671731521    7.63985257813265    8.60981310071599
C        12.69262517053652    8.94083228675263    8.29730599135118
C        12.48461138755448    9.43177784710269    7.01754795554424
C        11.92583113920099    8.62444568318876    6.04428627304332
C        12.16662602514954    0.75604311131526    5.31981512871851
C        12.52718329131480   -0.09975018962252    6.35368593471427
C        13.66020037411060   -0.88590920715592    6.22638335382349
C        14.44026771454434   -0.81223203156578    5.08470909367303
C        14.09169397338123    0.05404345876394    4.05919057820119
C        12.96102634656601    0.83766140928812    4.17547299825585
C         9.71948935173282    1.37719896013233    3.94450732774021
C         9.70059953001739    0.08943100266699    3.42430896980341
C         8.85339502487008   -0.20517174801731    2.37018941328799
C         8.03342582905462    0.77725046842865    1.83812837751440
C         8.05498974434541    2.06381288992068    2.35528764590334
C         8.89842608132140    2.36529010674828    3.40771112285328
H         8.22980576858785    5.75690746958324    6.01476357390434
H         6.04625482347166    6.87392507369732    5.61688410997647
H         5.91772369429330    8.78802971503801    4.06364502216416
H         7.94413232991098    9.58132608784617    2.91166715568029
H        10.10426255527716    8.48142586405791    3.30374176644226
H        11.49302659724489    5.80892260776231    7.86436427959572
H        12.49110311051711    7.25596773214052    9.60649180929879
H        13.13289539844053    9.57695166773504    9.05069822305978
H        12.75919382730419   10.44842529323188    6.77746675024654
H        11.75664600145642    9.01608632395495    5.05157769774836
H        11.94333222623581   -0.15982799598816    7.25983892512917
H        13.93710633111018   -1.55325245711767    7.02906564899247
H        15.32609236187169   -1.42359249210216    4.99825962501283
H        14.70575768223048    0.12630348287638    3.17467876921469
H        12.68536245483623    1.53294838379822    3.39488576543553
H        10.34859222533932   -0.67052444963833    3.83748150649937
H         8.83496512184183   -1.20399689092233    1.95991159915192
H         7.37896631970789    0.54000869978136    1.01255495541247
H         7.41967288644539    2.82760182527206    1.93232643308488
H         8.95066245742155    3.37242474738631    3.82464081625973
H        11.29430921185695    6.47646834750335    2.74862346244509
H        12.62421606771711    7.22357340563123    3.68926148126904
H         8.65956140232919    1.42803540096363    6.45783132455801
H         9.95776754989987    0.63567333111445    7.38279426144542

