47
CSD_code = DISXEJ | q = 0 | S = 0 | Stoichiometry = C14H16N2O14Zn | MND = 6
Zn        1.46627972583943    3.32120965690847    7.29372649378096
O         2.33905286375487    1.98476564057256    8.76547262999873
O        -0.20271330864478    2.14020062501809    6.99409292311763
O         0.59250513246662    4.64054454400868    5.80690841751802
O         3.13596647312431    4.49884545740286    7.59281138162101
O         2.33687817096000   -1.79842969023853    1.28975817031748
O         4.54218857949648   -0.60952059303944    0.73435204238934
O         1.13438813795713   -1.19410923656257    2.96227702538628
O         2.36687393867135    2.35947477379223    5.86961749750245
O         4.23441037679658    3.51406875401749    5.50394421123216
O         0.64529048308559    8.40720762110765   13.32314663450692
O        -1.58206462245841    7.25059358404402   13.85848718414227
O         1.84238320645344    7.80113031741599   11.64743668610874
O         0.57332276739601    4.28270276035567    8.71484843654242
O        -1.31864722076437    3.16108557731624    9.05630805931233
C         3.69627896245871    1.74462528401482    4.03301672568565
C         2.81330233922676    0.74715364923762    3.68090726664964
C         3.06497833067391   -0.06692017336042    2.57480729511248
C         4.23070387516563    0.12052746329603    1.79832369322052
C         5.11189764364537    1.14358342560439    2.17801508180458
C         4.85244719543106    1.93658836666382    3.26800288226774
C         3.42417626134936    2.62036464020839    5.22466051893294
C        -0.75985845057789    4.91030889679922   10.54390293007876
C         0.13709540745364    5.89098153277810   10.90756413898362
C        -0.10641070580682    6.70018566473634   12.01905312315971
C        -1.27810347814545    6.52484556380125   12.78935384574669
C        -2.17417885912247    5.51959211931532   12.39722581518938
C        -1.92257070228325    4.73119177515904   11.30204426139848
C        -0.49443736653737    4.03787972407167    9.34843651723631
H         1.91718790283847    0.58784509507663    4.26150692202093
H         3.83850591094945   -1.28603994817601    0.58622180165650
H         5.99848251865721    1.27995803537032    1.57972888842713
H         5.53249865251115    2.72312728437379    3.55742592709788
H         1.03817425054075    6.04049864975140   10.33215630155374
H        -0.86762803457464    7.91363906028895   14.01576410364628
H        -3.06547305515539    5.39270050930658   12.99058180175707
H        -2.61378881829543    3.95796119997684   11.00338150160229
H         2.58836678108716    2.59567045806501    9.46739689812896
H         3.15835952608006    1.66552219981651    8.37288550076311
H        -0.77483514091990    2.41006693482225    7.78669446260652
H        -0.03672023049901    1.19854359926708    7.08711255121541
H        -0.25825591695014    4.91455229538712    6.16531046024030
H         0.40428802514026    4.02975048098769    5.08608958089492
H         3.70020302679152    4.24624169326593    6.78904286482109
H         2.96416676856488    5.44123400578445    7.51983073344105
N         2.11624078229891   -1.07845763560640    2.26390313416980
N         0.85699189386707    7.69380835781187   12.34216467699569

