31
CSD_code = DITCIS | q = 0 | S = 0 | Stoichiometry = C10H16I2N2Zn | MND = 4
Zn        1.77943418533467    2.04610707888591   -0.28664160569560
I        -0.26826554149496    3.34542202169158   -0.97842023492879
I         2.99673477940716    0.00450320051448   -1.12743020223527
C         5.52612000167834    3.24831468815611    3.33646820809931
C         5.07298954090563    3.59929709857926    2.08061926100188
C         3.84167295706946    3.15655457200035    1.60800465823643
N         3.37556017302766    3.53400800629486    0.29114864587798
C         4.44222198343259    3.44657181728461   -0.71564613080304
C         2.87476250011818    4.91212341248598    0.32894880756331
C         4.74254684042254    2.44867444324910    4.14824879659719
C         3.51581475264977    2.00782434049379    3.69412619967669
C         3.05054265602662    2.34753480768042    2.42788959104815
N         1.76077406151196    1.88324296322566    1.96471651769700
C         1.53203932746966    0.47118992082071    2.30028951853613
C         0.70279709332388    2.69228704363668    2.57933207613265
H         6.48679211223300    3.60073635002220    3.67829662033397
H         5.69183550801784    4.22675224926902    1.45877682122798
H         5.16661961043656    4.26128104276770   -0.62730067980856
H         4.96659079338936    2.49756970745962   -0.61949675843312
H         3.99865097933323    3.50252929600914   -1.71113550000015
H         2.06058797677137    4.99982366754949    1.04575700378155
H         3.66496194060471    5.61483042178760    0.61591546200620
H         2.49912040366997    5.19154991559492   -0.65484651248652
H         5.08371686438670    2.16645634755634    5.13209391473911
H         2.91276287755999    1.38739632429992    4.33812677424421
H         2.40534315441596   -0.12071201942293    2.03321780432144
H         1.31711949723985    0.32490291848086    3.36260013296577
H         0.67419140502315    0.10487238908123    1.73387022699805
H         0.71756891810862    2.60274453762264    3.67120942227625
H         0.82801213912573    3.74137706798107    2.31890931319822
H        -0.26891949108334    2.36073436886259    2.21515184784008

