27
CSD_code = DITCIU | q = 0 | S = 0 | Stoichiometry = C10H10I2NO3Rh | MND = 6
C         1.80604871327754    5.19933244161468    6.80280979910205
C         4.20868470019240    7.86004196343480    8.86891828710536
C         4.31360353707072    8.92944013627997    7.83755357111998
C         5.04131018639197   10.09424459454497    8.05964375542706
H         5.55433887817350   10.24080594857367    8.99532118044553
C         5.10053455312065   11.06349927653823    7.07303583587786
H         5.66058038096270   11.97238002885873    7.22955659293345
C         4.42397585317913   10.83329690446855    5.88900803733960
H         4.43277002255483   11.55150614745353    5.08552663694064
C         3.71909634190293    9.64860607748915    5.73677626917110
H         3.18581535262298    9.45204037394062    4.81579085180326
C         4.94459295611789    8.02474846571249   10.16154345984111
H         4.77019584407511    7.14741680954952   10.78001368358114
H         4.58952650314491    8.90878437867127   10.68824987109568
H         6.01254123071651    8.12893613450766    9.97917590941369
C         1.82779604570418    6.94955581530811    4.62247159919441
C         0.97209049583271    5.82914821747395    4.10614370935167
H         0.65450616388041    6.07090060553566    3.09125853508515
H         0.09285791677451    5.69615595821631    4.73636404896906
H         1.53628988851446    4.89648958243303    4.09278773202795
I         4.75511524645347    5.71353811888615    5.53151685495685
I         0.40621135627250    8.08444340304689    7.37871793326649
N         3.65801108569058    8.71311729606376    6.67579672245087
O         1.41228738437865    4.19196744016700    7.15590347436301
O         2.11278168137652    7.92124266620079    3.99369936038364
O         3.53104952686165    6.87199654951763    8.65489200486037
Rh        2.56888815475699    6.84246466551314    6.50142428389259

