28
CSD_code = DITCEQ | q = 0 | S = 0 | Stoichiometry = C10H10I2NO4Rh | MND = 6
I         2.50865856493717    3.97817533123103    4.12508372859347
I         6.77249346412799    1.60487002398302    2.11188113772613
Rh        4.65419120366884    2.83907390687341    3.09114606443524
O         5.36502091151230    1.97579595366036    5.61237797865719
O         3.52561915707896    2.60162496306140    0.97333317490807
O         2.22576206143043    1.14386989332944   -0.10093728958921
N         3.62646539919307    0.92271605560159    3.17385354828678
C         5.32190269804257    4.47036632812292    2.58123784413368
C         2.92924672879044    1.54298608972203    0.94279706993744
C         2.92392311640540    0.57831449886312    2.07793891793664
C         2.21652266541903   -0.61293744463710    1.98442454558777
H         1.67396086707437   -0.83021596513384    1.07907802680874
C         2.22714977776343   -1.48889248879102    3.05680555264830
H         1.68600762910446   -2.42111642023416    3.01106872397540
C         2.94912131260057   -1.13289198143107    4.18201424791870
H         2.99380012862548   -1.77425912393870    5.04723337350427
C         3.63000470548717    0.07554393452470    4.19644240321370
H         4.19932133882247    0.36752921251882    5.06910527243646
C         2.19962326835465    2.03666919606980   -1.21160854071540
H         1.76624469844377    2.99370012658592   -0.91513720350806
H         1.58696164330703    1.55574332430182   -1.96879131300508
H         3.21192249695218    2.20494458576056   -1.58396755199699
C         5.54809800062838    2.91110701241988    4.89812544562861
C         6.38096551754015    4.10726773193626    5.25447832805145
H         6.77817064588114    3.96877732308896    6.26058068296593
H         5.77692112589899    5.01427831417874    5.22820028946478
H         7.20835410175897    4.21828675073272    4.55353699019060
O         5.64766677114876    5.45377286759595    2.11019855180427

