37
CSD_code = DITFES | q = 0 | S = 0 | Stoichiometry = C14H17CrNO4 | MND = 9
Cr        6.58910947634225    5.64232964994647   18.97640631903487
C         5.37561140371130    4.93998393410243   20.13468728603459
O         8.32215460977155    4.95876329484068   21.74408850166792
O         4.55703025519040    4.52268971136384   20.83955437536456
C         5.40658746874653    4.99108057347197   17.75227910775352
C         8.31681905383496    5.34615880108080   20.43827971095156
C         8.45874487719378    4.64033719887008   18.11914121552656
H         8.58691225239111    3.83836831097231   17.40282251569486
C         8.41591625872609    4.30532643203408   19.47193928867221
C         5.38894287433376    7.00998654903810   18.99077675136955
O         4.58633215559631    4.61017252817608   17.03189953764178
O         4.57217501652018    7.82860506193569   19.01680393759638
C         8.30772688324577    6.68438072497191   20.02127975578229
H         8.32939485144545    7.48603192855325   20.74776091186076
N         8.21026940215856    1.94642861244056   18.89291964777778
C         8.65926262995304    2.87924207198091   19.92670266202819
H         8.11317559887204    2.71015256743205   20.87349273845383
C         8.36694799814035    6.99709988652385   18.64799903716200
H         8.43379319692542    8.03664481201633   18.34889547676270
C         7.82060188812360    5.86136461223359   22.70833869659844
H         6.84872007632000    6.26075423956463   22.40025354559578
H         8.51937668082227    6.68257814799895   22.89726900475747
H         7.70300348708604    5.27876860691123   23.62024198268609
C         8.44164515097578    5.98322955651886   17.69569476048462
H         8.55498576412869    6.22199335196007   16.64580031221024
C        10.16077210009756    2.77828020914266   20.22867311749585
H        10.73906766573436    2.89341819423402   19.31425240875034
H        10.40949153283239    1.82974519450714   20.69534674667340
H        10.43397774467872    3.57296798619339   20.91948195442163
C         6.76288763231366    1.81743450336996   18.91553600593777
H         6.29559896489802    2.80008091752441   18.84956532508229
H         6.40482597256068    1.32109001399543   19.83031290093353
H         6.44975581967672    1.22811369820030   18.05558653989949
C         8.81942496564039    0.63267516405860   18.96156582153499
H         8.37315311732887    0.01331809013184   18.18483846171663
H         8.66081969918603    0.13455330523738   19.93001693878355
H         9.88638547449687    0.69935155846881   18.76379669930625

