69
CSD_code = DITKID | q = -1 | S = 0 | Stoichiometry = C32H28AuO4S4(1-) | MND = 4
C         5.11293445098556   13.06593000311428   -0.40034651771957
C        11.63004439825990    7.34949423117476   13.87508752502618
H        12.02072082211872    7.27109811130152   14.88948076981010
H        10.58679342647559    7.01466205364385   13.86386036921713
H        12.22064842783829    6.70790381310504   13.21130412154889
C        11.31705855510639    9.08318596505997   12.27456318614442
C        10.77492782398974    8.22790398810583   11.32526064316388
H        10.64672962614391    7.17530128334155   11.52748011451410
C        11.44570360379259   10.43885739615735   11.97308203384571
H        11.85084649682955   11.09592304847984   12.72740851749293
C        11.05813752540684   10.92375276587119   10.74412691582999
H        11.15161538294347   11.97748805396709   10.52946466919870
C        10.38724864847800    8.72312092354611   10.09296827520125
H         9.96029483282187    8.05664478779541    9.35906475695334
C        10.53724730507007   10.06724499944386    9.77252492667338
C        10.12511843721330   10.56441414891994    8.45655154111943
C        10.84805894975930   11.43196900245616    7.72332491154209
C        12.19242168465452   11.88786504210426    8.08876198353914
C        13.16456830718233   10.99715465799123    8.54758286027689
H        12.92849230127765    9.94694537814689    8.62817758496020
C        12.53910962101053   13.22701558973273    7.95314590911940
H        11.80356214831668   13.92012875205442    7.57413937937474
C        14.42144963709338   11.44387795912542    8.88882268642525
H        15.17655666015001   10.76010064523153    9.24540620390128
C        13.79964995394042   13.68387151900681    8.29409583232082
H        14.02190488412401   14.73393885508610    8.17897839286654
C        14.75094836576138   12.79424951172232    8.77388073197262
C        16.40789492766214   14.48131644105778    9.04423846252194
H        17.44092398074713   14.52709131619883    9.38850364167265
H        16.35705454854714   14.83611308802984    8.00877922030509
H        15.78878137358596   15.12785097066805    9.67652106954821
C        -0.57287864375371    8.80770801847730    3.47552086847105
H        -1.41228916901534    8.39078508223223    2.91935361627620
H        -0.38756681276859    8.19259088752603    4.36317473223040
H        -0.82085392077010    9.82769926211483    3.79047058559806
C         1.72340805521761    9.26643519569954    3.04982637814571
C         1.94775977088997    9.77198268485402    4.32286617200079
H         1.15764992487354    9.81208822746022    5.05729126207751
C         2.78078309955476    9.21903085570280    2.14155624278324
H         2.59704576015325    8.80588883903701    1.16155725662206
C         4.02860188320696    9.68281630547307    2.49311712912365
H         4.84077480186436    9.62741279972664    1.78427765286129
C         3.20458205980887   10.23547649824106    4.66851088619259
H         3.37760442929181   10.62207161118049    5.66132005029719
C         4.25803670944218   10.21771527431645    3.76199824621487
C         5.57837677423183   10.71983737860069    4.15352970580749
C         6.34884148956637   11.49581064381272    3.36798135243038
C         5.91272620618968   12.03917144931215    2.07824006488281
C         4.64813847783546   12.60825452762918    1.91735356786012
H         3.97699821974611   12.66044316928839    2.76114163304631
C         6.77156585294030   12.02587821085744    0.98550656941281
H         7.76145826595821   11.61262481085974    1.10542292146778
C         6.38227895090475   12.52662924689059   -0.24398317586158
H         7.08025222539067   12.48857658947249   -1.06656164403966
C         4.25331485521670   13.10914199558275    0.69712529158420
H         3.27631379350424   13.54870708280544    0.56634595711403
C         5.44669441794110   13.56530319944258   -2.70344927589220
H         4.86310563996998   14.01186616291979   -3.50829834752702
H         6.35609716046947   14.15620549314261   -2.54702580743280
H         5.72589131433742   12.54369982886817   -2.98528974245514
Au        8.22513717690893   11.05331081963566    5.92552561389131
O        11.74431447936556    8.70298588205481   13.52401682144924
O        16.02780687817212   13.13499746271441    9.15042481341655
O         0.51843159742375    8.78833295222137    2.59406849593755
O         4.61617679752508   13.58235938178187   -1.57285431438489
S         8.56453223955294    9.94157487068236    7.92564068950957
S        10.26637138831753   12.10589975941424    6.20245186632526
S         7.98206064733162   11.97982307262373    3.81949285044704
S         6.08731009547270   10.18535016609226    5.75381229613999

