47
CSD_code = DITLOK | q = 0 | S = 0 | Stoichiometry = C16H22NO6PW | MND = 6
W         3.23924248905223   10.56151308993674    8.85413878778633
P         5.35466926279975   10.01000876947874   10.03434658855612
O         6.14539085227293    7.61396315692013   10.87273216013269
O         0.44866330892024   11.10877450098129    7.55779189076966
O         2.28598167736986    7.82321885527779   10.05618139612521
O         3.98465048682778    9.16878944531604    6.14671167350712
O         4.13589925488827   13.30338298402363    7.61450334709815
O         2.16966625456230   11.83138228850514   11.51732011661910
N         4.99120091013706    9.44597742585881   11.57887334077100
C         6.05646249663260    8.27024112698388    9.61290292561681
H         5.16039147192993    7.85577092542280    9.10712721900406
C         5.47008028825180    8.28600600118465   11.80849658225114
C         7.25332186776152    7.93318477088207    8.71280261032380
C         7.20857861525918    6.42334656721730    8.43875267198208
H         7.31126357809091    5.86756750943446    9.36737174566623
H         8.02012841510207    6.14240502885682    7.77186900090373
H         6.26808789140802    6.14202111584920    7.97012320443205
C         8.59146874332906    8.26318541740533    9.37182926835723
H         8.74791262818898    9.33632519671809    9.42532689728926
H         9.40272873940316    7.83540273605778    8.78688448060941
H         8.63563496621791    7.84080101033353   10.37350244195092
C         7.10005665611307    8.69502913994316    7.39698595629058
H         6.26555816067589    8.30161575466310    6.82293186653796
H         8.00192059452734    8.59335575644096    6.79807146183278
H         6.91902695319426    9.75244467506404    7.58167858515113
C         5.31861048425550    7.59151579402064   13.11459184752084
H         4.66810405622071    6.72750612689455   12.98879817949988
H         4.88408820512440    8.26960703623157   13.84143345745165
H         6.28825039282124    7.23691745556402   13.45720297632287
C         6.57519464154370   11.36492328646783   10.52780160453198
C         7.55835022017035   10.91517723177702   11.60612487194400
H         7.02628645432304   10.69729011409287   12.52994441068148
H         8.27255202253627   11.71364854844306   11.80290443341752
H         8.11200832115051   10.02781248879907   11.31375739757680
C         7.28533439177506   11.92380898575652    9.29980910636030
H         8.06708445105471   11.25729677981108    8.94332440401493
H         7.74592323655199   12.88079839423609    9.54241741146854
H         6.57166091162145   12.08728719277619    8.49144253736401
C         5.65877141267799   12.44030809014717   11.11789274903788
H         5.00837714786623   12.86397432223517   10.35311613101467
H         6.25708881259279   13.24579860818365   11.54165861123470
H         5.04149402469212   12.01481910552623   11.90833514256868
C         1.47167098736389   10.91592324216054    8.02964599840516
C         2.61928829886161    8.81754756007794    9.60097606827490
C         3.77462305308379    9.68017167167465    7.14815189847926
C         3.84949526551133   12.30785704897591    8.09998132030966
C         2.60305664527168   11.40209766739245   10.55453322295210

