103
CSD_code = DITPUS | q = 0 | S = 0 | Stoichiometry = C38H42BF15NO3P2Re | MND = 5
Re       13.12002109220090   10.64408891603077   11.77174859668962
P        14.27813888807189    9.91961751899043   13.93918261365442
P        12.46669950680128   11.29888024948260    9.39094622964250
B         9.55017494873341   12.32227623374693   13.27123909896111
F        10.92162897598321   13.35644011421968   15.55658591662775
F        10.49899368426597   12.76721681007225   18.13202610708162
F         8.59169466271188   10.92832816604133   18.83188739873894
F         7.12902112721337    9.70903594404722   16.86917096308072
F         7.54227182977100   10.28944006807699   14.30550068784245
F         9.99230150331191    9.46833417962939   13.10018990869769
F         8.90983609265706    7.76093955034045   11.35282849695024
F         7.22508090210621    8.67492124189391    9.39157633692733
F         6.69980381942762   11.35153972363450    9.22653758612970
F         7.77562676459924   13.06010078270273   10.95914169837608
F         6.87029594766206   13.07067243288948   13.91384497402808
F         5.82693395239065   15.53924600400446   13.98853004205874
F         7.36426547675635   17.70612210040060   13.32042941449739
F         9.97427402118449   17.31646425143162   12.59207869131553
F        11.01849071197922   14.88256607374707   12.53587612345532
C        15.18931872158547   11.33008757401325   14.76947150992239
H        16.18384753282812   11.30585316291732   14.30266904922132
C        15.35678546397943   11.20052418343092   16.28289545940050
H        16.04753086867531   11.97075982684068   16.62280689494362
H        15.75967448128005   10.23754637806582   16.58059837687994
H        14.41422326430241   11.35724481276607   16.79978956504399
C        14.54135266737424   12.67186567543587   14.42858002060150
H        13.52735584737000   12.73803092862559   14.81579288364482
H        14.50339915302338   12.82531906270948   13.35017441726244
H        15.12178342003513   13.48278730396375   14.86432152453534
C        15.57182283754969    8.58564995684535   13.67691623456690
H        14.99317115263054    7.73202533539248   13.30347576112409
C        16.59274636455151    8.95839106318985   12.60530813232118
H        17.13603898677659    9.86462144489737   12.86557391949685
H        16.11173988802258    9.10477983853818   11.64091921989788
H        17.31671202417309    8.15238941590962   12.49934848571369
C        16.30726851884692    8.15871770121298   14.94556483542837
H        16.90906770312363    7.27875455936323   14.72285491516526
H        15.62783071005076    7.89394585568351   15.75100884817130
H        16.98224115500193    8.94069451618083   15.28437676253846
C        13.17682349176048    9.14586954625613   15.22038022578061
H        13.79281579706758    8.93383311714589   16.10078040593751
C        12.56777731997096    7.85649252147587   14.67807762626966
H        11.80366924662417    7.49529878019935   15.36318599877259
H        13.30915587446599    7.07061713586077   14.55703877749933
H        12.09062824722406    8.04624294852620   13.71683969363954
C        12.07025647928518   10.11699989649069   15.60358220363504
H        11.45963221053455   10.32557048965433   14.73111182974292
H        12.46645678682634   11.05292188716450   15.98818799436283
H        11.43107723332695    9.67402255521121   16.36556329604399
C        12.16376026030323   13.13178787087552    9.21853282756575
H        12.26116571659926   13.37413285804504    8.15364435030704
C        13.22850567807704   13.90089417276169    9.99706396597763
H        13.09964670980779   14.96993421336059    9.84275192104312
H        14.23549291704744   13.63207456441029    9.68329702707884
H        13.12719684476228   13.70402567809527   11.06421778209823
C        10.77680983555989   13.53589527007025    9.70684408748000
H        10.61111025199603   13.17127586671313   10.71510747437036
H         9.98160545624109   13.16721720527722    9.06513429460811
H        10.70688199924950   14.62138964382189    9.73339201236555
C        13.84342961631648   11.03633797391312    8.14171293379187
H        14.58497485428799   11.78259921817481    8.45954982444514
C        14.49337456200799    9.65908219936168    8.24422830651250
H        13.81900252044117    8.87621794100791    7.90739736588317
H        14.79189441590982    9.43924453716408    9.26709398825089
H        15.38258228926708    9.63032310087962    7.61680339400173
C        13.48093971433915   11.31427018081437    6.68474912614113
H        14.39992135646299   11.41931752016447    6.11011656555609
H        12.90716235830667   12.22750923794155    6.55768248479315
H        12.92127775318243   10.48606173933958    6.26040870239166
C        10.87603430697200   10.51218398956402    8.80821981891487
H        10.17430335407483   10.86025007660056    9.57904294408524
C        10.34820574435758   10.94212997645054    7.44030651326486
H        10.81510551178174   10.36953736358272    6.64496474842639
H        10.50281753150597   11.99886683109276    7.24292674571148
H         9.27765898977148   10.74680987319829    7.39753234896250
C        10.94943754746795    8.99115715151202    8.89450548323022
H         9.97805335737522    8.55672392333094    8.66665347188690
H        11.24197132261045    8.67518205373983    9.89460466973404
H        11.66467784372867    8.59028194959375    8.18071693336072
N        11.84525827229070   11.61277356245492   12.52153616017168
O        11.06535135914554   12.44734359564872   13.04458863496597
C         9.27538671010605   11.83110914723949   14.81279007568153
C         9.97660499792931   12.44717483318977   15.84596994780303
C         9.76741689743688   12.15876173210482   17.18849860470439
C         8.80230019811025   11.22632372460199   17.54662653409736
C         8.06487222111438   10.60699012952590   16.54620966678480
C         8.30462698618243   10.91759067430205   15.21032808810186
C         8.89575900406675   11.33405933285830   12.14752430240294
C         9.16591760413112    9.96712997269652   12.16668597041870
C         8.61051566802528    9.06191705169044   11.27201369822676
C         7.75474994713367    9.52204948231546   10.27977488533850
C         7.48611992560426   10.88201049979586   10.20307756564412
C         8.05503630494662   11.75763767068468   11.12378662018800
C         8.98614158488644   13.85839505116366   13.22300912832802
C         7.66486030452797   14.10365650461627   13.58929288345087
C         7.10387615800279   15.37272986274339   13.62798800898364
C         7.88163680405721   16.47484376667840   13.29255177311797
C         9.20425029462914   16.27274908938674   12.92768513351538
C         9.73429708297197   14.98513107173843   12.90293548185852
C        13.34223056424327    8.75801993656748   11.24161150109760
O        13.36165805952746    7.61905248847429   11.07478262995194
C        14.92278272294444   11.21205217873014   11.23177113157559
O        15.88749235198465   11.78909662456184   10.97774370879090

