41
CSD_code = DITPHG | q = 0 | S = 0 | Stoichiometry = C36HgI2P2 | MND = 4
C         6.47849425491923    0.01147361627474   -7.08760625759486
C        10.18367611596391    3.05624193948937   -5.50869766570242
C         9.61127451794973    1.95960739894524   -5.11294976174491
C         8.92845529490862    1.10912650129611   -5.83532673875591
C         8.60200720558838   -1.22849279026814   -7.67696811696306
C         9.72782835410272   -1.74641327580074   -8.26998968484713
C        10.06709324084866   -2.89808341244166   -7.71057153811485
C         9.44354649394798   -3.55347064078876   -6.78803467068604
C         8.35315710825145   -3.09360204345204   -6.22616274229745
C         7.84668089712053   -1.89637255216836   -6.64949588450783
C         9.12930139104845    0.30150153498439  -11.90213203599738
C         6.62506846056462   -1.19220317451954   -6.32644791733885
C         7.91423380692680    1.03419652107235  -12.16081813569805
C         7.78874740689842    1.78405211958837  -13.28432034218413
C         8.85396412494870    1.78417021098565  -14.06205452243773
C         9.96492120382368    1.14557569798847  -13.87674168321779
C        10.15479651190928    0.40348840897573  -12.80321499915607
C         8.05670317140903   -1.77717378782070  -10.47184359873356
C         6.70641217775800   -1.51658668048846  -10.23453110769840
C         6.01767538446509   -2.65340106417687  -10.32973310490409
C         6.35928230775048   -3.86425645732558  -10.61689085480421
C         7.63705227731342   -4.09712884117387  -10.85100944749204
C         5.63143671811036   -1.62680083577178   -5.43684244423594
C         8.55388787647705   -3.07901056096293  -10.80639985569383
C        10.60028901224560   -1.79364476869307  -10.93244215033164
C         9.96923209396334   -3.11219836760912  -11.08050294799655
C        10.75531634713492   -4.15326830029666  -11.46731779772467
C        12.02931369185872   -3.90665808978115  -11.66918599638783
C        12.55123877937844   -2.73384000384076  -11.52882891064486
C        11.92815679870027   -1.64156238214419  -11.15452789509698
C         4.66322269064588   -0.73045905470667   -5.51534936385727
C         4.35086027879113    0.35830877164583   -6.13661601540578
C         5.31956016018625    0.76711460622483   -6.99995275646779
C         8.82683795610734    1.45111674814557   -7.16180334449427
C         9.44348538438948    2.65858043781443   -7.64147890070110
C        10.12517668553178    3.44275089402456   -6.75957454945725
Hg        6.47082318918134    0.80625720905746  -10.57201913163559
I         5.15942906173488    2.53709812203550   -8.29177427038406
I         9.27542833331625    3.17119206243164   -9.66187608686483
P         7.87404540475140    0.31590500229461   -8.20956150202341
P         9.41618782903885   -0.58053071902567  -10.30670526972641

