142
CSD_code = DITQUS | q = 1 | S = 0 | Stoichiometry = C70H61Cl2MoN2O2P4(1+) | MND = 6
Mo        3.08988137875610   -0.99842096871497    3.93559958532418
Cl       10.45777676333731    4.79688645303638    7.07619782760388
Cl        2.81137333641192   -5.51522122350513   -6.27506712515006
P         2.80268928991127    0.86825219028445    2.34643614563062
P         0.72358955533771   -1.16648609428762    3.42045130680071
P         3.25865317298068   -2.97910442621089    5.36395659274019
P         5.52115167525647   -1.41627681361192    3.91897105315901
O         5.74953824507073    0.13679669010685    6.51551852976376
O         1.23709877486364   -2.37173898588032   -0.61285339343258
N         3.11678414531122    0.05610127467589    5.31653784240933
N         3.08462606020110   -2.13953440566901    2.33546724092572
C         3.13634819469499    0.93705298774123    6.39556931988191
C         4.26314442838045    1.98616113998144    6.32368481521813
C         5.61938971771368    1.34558159323828    6.50339955280645
C         6.77749076992829    2.24549660602250    6.66071123450018
C         6.73302800324825    3.60693238630881    6.35515321049564
C         7.86294413440539    4.38797732821956    6.48155358087993
C         9.05120718570401    3.81968969510629    6.92688467988848
C         9.11091357778252    2.46969841587714    7.24789703892573
C         7.98061152520305    1.69366391888330    7.10683185664715
C         3.22549725616687   -2.70087661969303    1.30679161024245
C         3.29024386760328   -3.26552936639526    0.09912152788489
C         2.25341286358157   -3.02687058677590   -0.86009377521213
C         2.44204151718539   -3.64654478152915   -2.19909867269391
C         1.30425686601075   -4.00247682547915   -2.92011842165148
C         1.40797075021383   -4.58194064469331   -4.16849931533129
C         2.66561633995968   -4.79293991484947   -4.71454355266241
C         3.80962756351127   -4.42041697420996   -4.02321775249276
C         3.69527519306299   -3.85236510742878   -2.76892800637469
C         2.86315836881551    2.53917882554364    3.06498624570282
C         3.83839114397644    3.47498478954343    2.73357709455831
C         3.85486243135472    4.71165236522475    3.35661051024905
C         2.90305473779085    5.02591560281761    4.31258839985435
C         1.93227567789641    4.09573111118596    4.65172881221522
C         1.91571503067250    2.85779583642194    4.03676236195914
C         3.71995001175051    1.04471873458120    0.78425802515202
C         4.68448852960105    0.10364957031326    0.45582662392874
C         5.34414778143836    0.16983577984721   -0.75857212261142
C         5.05095887260600    1.18874347271888   -1.64782751537223
C         4.10194629954400    2.14544489659897   -1.31772905730115
C         3.43294166849218    2.07506472951725   -0.11141559222691
C         1.05721857462038    0.91505024971122    1.68000522661311
C         0.43552936765477   -0.46931333236511    1.74872770830533
C        -0.19744137499413   -2.73313495585825    3.33866933930141
C        -0.26535402257834   -3.46966635102623    2.15629159041541
C        -0.93089393903016   -4.68304377594774    2.13958123003375
C        -1.53015513266397   -5.17160668076215    3.28892847834242
C        -1.46537735356979   -4.44101680569078    4.46399152326843
C        -0.79872440304788   -3.23015185680311    4.49302303103565
C        -0.34456746714936   -0.19096357741246    4.52253432480092
C        -1.46463280435113    0.51688751045648    4.09764216282029
C        -2.22815129252810    1.21863375111398    5.01463445448495
C        -1.89442397623635    1.20814908841359    6.35909995857072
C        -0.79144272294827    0.48881672592482    6.79109792540164
C        -0.01873362694224   -0.20327143242602    5.87665310786105
C         2.08520459512787   -3.29744866523825    6.72318494262420
C         1.19881542459898   -4.37038882317389    6.68034124385595
C         0.29121465256484   -4.56681773541450    7.70631375972245
C         0.24676130829510   -3.69284806420162    8.77892059786967
C         1.12180918347564   -2.61960806216794    8.82691758235381
C         2.03395574169166   -2.42328031622151    7.80720609323539
C         3.39184801904820   -4.65770629784881    4.66728401498681
C         2.56789821426497   -4.97382761697531    3.58895256394268
C         2.60319329277608   -6.23450751093435    3.02244148941426
C         3.46101932143895   -7.19646464928417    3.53028045736614
C         4.27077840624888   -6.89572325160778    4.61383869905984
C         4.23640449784296   -5.63644784116359    5.18624915110950
C         4.82822907940661   -2.73191318015863    6.29316300352368
C         6.00198878420656   -2.51905670310123    5.34547662263307
C         6.21788793882063   -2.40491320711565    2.54355226775906
C         7.10387716566016   -1.87005554600001    1.61088770078538
C         7.58288740932877   -2.65203816866578    0.57444911481240
C         7.18217903244937   -3.97149010214832    0.44629219299652
C         6.29346447064705   -4.50835112546102    1.36317869351763
C         5.81329129702126   -3.72934829024898    2.39972571629415
C         6.75058229700975   -0.07460665193723    3.93376540506827
C         6.34380654641864    1.18425009472555    3.51625417191134
C         7.25147062145758    2.22452101550929    3.43275551975159
C         8.57818223767550    2.00942399255649    3.76558237296134
C         8.99115900117254    0.75337701919260    4.18064943225605
C         8.08626164739486   -0.28950935958456    4.25985118532485
H         3.26028006256628    0.38112910178124    7.33971262498622
H         2.17042177837362    1.46420961095593    6.45366870982896
H         4.10738821049044    2.74460022215238    7.09238754428149
H         4.24325105248259    2.47303438387216    5.34710251098012
H         5.82142822817386    4.05960165892322    5.99760683217663
H         7.83268761477670    5.43823907826294    6.23812126044386
H        10.03502359344687    2.04024694072577    7.60043790381806
H         8.00579996700949    0.64208835616223    7.34896454564536
H         4.11919604263109   -3.90665667033656   -0.14122816902532
H         0.33542589344855   -3.81742223460299   -2.48059056781705
H         0.52518620630633   -4.86540361638229   -4.71940935115234
H         4.77962474199673   -4.57420588883395   -4.46955348533085
H         4.59021283954956   -3.54431830948907   -2.24790495870268
H         4.57731373571546    3.24239352939547    1.97945234391383
H         4.60963577035205    5.43571248606690    3.08772144192665
H         2.91469438830086    5.99367195691594    4.79016087290880
H         1.18739185002637    4.33736206967579    5.39542156272878
H         1.16789632445466    2.12409811936572    4.31526436843644
H         4.91278496833683   -0.68481819073803    1.16083563978591
H         6.08309127771258   -0.57721939388187   -1.00755328555795
H         5.55990462647059    1.24228955730898   -2.59805065197613
H         3.87989526453434    2.94536142883157   -2.00801596354925
H         2.69463852596182    2.82461061260981    0.14154420667806
H         1.07621133102159    1.26987801995357    0.64540483229528
H         0.47862726618589    1.62502405087144    2.28124309213535
H        -0.63503971168319   -0.45219724308796    1.51783098141494
H         0.91812949114133   -1.12791663612417    1.01306275934123
H         0.19443342026133   -3.10647915175433    1.24847132419610
H        -0.98472769695702   -5.24611211537632    1.21966902508678
H        -2.05164100195522   -6.11650030017590    3.26767870419128
H        -1.93904278949760   -4.81174027157557    5.36055718342307
H        -0.75365803005302   -2.66081145936419    5.41174432665243
H        -1.75271443688404    0.52297357207092    3.05678756279826
H        -3.09257119738744    1.77095954608257    4.67787719527570
H        -2.49658202629289    1.75479301377823    7.06862737326531
H        -0.53492573680343    0.46612202985820    7.84011495616041
H         0.84758510795050   -0.76834755108370    6.19948607029648
H         1.21952615253179   -5.05828751133290    5.84750742253318
H        -0.38172021566801   -5.41012311168739    7.66793187553491
H        -0.46296525617769   -3.84860154048480    9.57678008632480
H         1.09624203243787   -1.93812460524284    9.66439073454715
H         2.71929887371657   -1.58942932199497    7.85614308630625
H         1.89612876640886   -4.22374374594498    3.19512904062077
H         1.95979417645317   -6.46212432504604    2.18587101516389
H         3.49532967563869   -8.18037735801052    3.08803130252601
H         4.93185020508118   -7.64739210524966    5.01856961228976
H         4.87036596178231   -5.42652783898783    6.03467828614080
H         5.01216874515972   -3.55017917200806    6.99682412490211
H         4.68599703603884   -1.81147492263072    6.86647200119187
H         6.81790869817357   -2.03788491809677    5.88889558625692
H         6.35506946821916   -3.47307974205558    4.94021768198234
H         7.42459065651214   -0.84116219576772    1.68986669870186
H         8.27854291923514   -2.22755298339657   -0.13430205949087
H         7.56040144536613   -4.57807823086182   -0.36261643178075
H         5.97090424655540   -5.53568828856810    1.27493464358940
H         5.11303858608229   -4.15810610899533    3.10285111250953
H         5.29929834176139    1.32811275435755    3.25973704606407
H         6.92781662977961    3.20185376518251    3.10689217745082
H         9.29032214182418    2.81743198098014    3.70113457285438
H        10.02692581097175    0.58411515340133    4.43340715235546
H         8.42331538578899   -1.27247799361172    4.55679943949615

