82
CSD_code = DITREG | q = 0 | S = 0 | Stoichiometry = C29H45ClIrN2O2PSi | MND = 6
Ir       -1.67207458063738    0.68103640951515   18.55638529886695
Cl       -3.21187927481136   -1.21710621486523   18.66419110491049
P        -0.17862166412773   -0.85133023533955   17.57399394242606
Si       -0.62308342901292    2.72859263735869   18.16363982343667
O        -1.21388286774680    3.09813217429543   16.59485436741694
O        -1.64923311357653    3.75629466373571   19.08201794999998
N        -2.77040285510326    1.42464714513564   16.75082152416748
N        -3.03991781974664    1.97958883791164   19.51615314867086
C         0.96479607014856    3.77167258026489   18.13858202574458
C        -2.31265443054633    2.52830289611591   16.14967047303648
C        -2.97540906570201    3.08622772981107   15.04960655895702
C        -4.13663396163297    2.49998968129312   14.59683995671731
C        -4.62337966443805    1.37599981662384   15.25417976953098
C        -3.90516716247050    0.87995027390612   16.32164701889308
C        -2.76861276194508    3.29332795348426   19.58331691121981
C        -3.66656165307384    4.18817506061869   20.17721870500198
C        -4.85029058449475    3.71709479032352   20.69943723083581
C        -5.11982057240772    2.35587228032923   20.62138634979391
C        -4.18800209825822    1.53263824337882   20.02795012300027
C        -0.26659563525600   -2.58644931605199   18.27376454069282
C         0.75447549057759   -3.59707792871377   17.75397493956061
H         1.73787680135319   -3.37500166035274   18.17051730843786
H         0.82635608784523   -3.57380320545712   16.66580923553452
C         0.34742513031523   -5.00160105574179   18.20038159185587
H        -0.63216206037418   -5.24546439715511   17.78340254766806
H         1.06509570913949   -5.73202443681654   17.81846813359158
C         0.28312725354676   -5.07963885470673   19.72222863201341
H         1.28010850205966   -4.90625271192942   20.13518314515585
H        -0.03588578852622   -6.07758408325848   20.03017003695082
C        -0.67994738826731   -4.02980526066601   20.26750701619575
H        -0.68909513000392   -4.06485318980344   21.35857820682079
H        -1.69165622943045   -4.24426687570098   19.91830428200238
C        -0.27767817662350   -2.63202971456087   19.80211465843549
H         0.70503413522921   -2.38542253074495   20.20341642407154
H        -0.99133027802545   -1.90358168762306   20.18397795235926
C         1.60027687819495   -0.25034959707629   17.64358438074816
C         2.66174806853326   -0.93313766663522   16.77955009302588
H         2.87366441729442   -1.93408291563842   17.15246090658969
H         2.34212605942969   -1.02156484544286   15.74172897728294
C         3.95018772936188   -0.10981806928947   16.82932011040477
H         4.71199318671237   -0.58354452906950   16.20579855425668
H         3.75872581531404    0.88647065560519   16.42413583421131
C         4.45884023572846    0.01757370807263   18.26149588862049
H         4.71894587815781   -0.97336259994825   18.64090128012939
H         5.36343315791001    0.62869667267635   18.28068925790820
C         3.38730963037152    0.63687478768477   19.15422446794025
H         3.18127285438004    1.65672078755687   18.82595563411194
H         3.74404184317791    0.68081944132974   20.18479542583682
C         2.10199743419497   -0.18345970267211   19.08472604721152
H         2.31104908545537   -1.19036279514120   19.44711550740770
H         1.33220376267056    0.26344879544000   19.71496555147202
C        -0.37932532578427   -1.18776112932160   15.74309492168824
C        -1.75417786144819   -1.77695871358184   15.42977763572997
H        -1.89754490406689   -2.71527613775528   15.96706307338070
H        -2.52833424021034   -1.08703440816594   15.76266864981062
C        -1.91476860120455   -2.02989594580000   13.93327569947969
H        -2.91067357756931   -2.43195347357158   13.73649159956370
H        -1.18362307783133   -2.77495251562105   13.60786390593455
C        -1.70545899325793   -0.74290998423174   13.14356445611911
H        -1.81456348647693   -0.93575002864700   12.07404874395500
H        -2.46438404536159   -0.01099257086329   13.43198120507048
C        -0.32041502718804   -0.17759893100786   13.43612373508997
H        -0.16819154196694    0.75056587358937   12.88080459829236
H         0.43861012303355   -0.89233533083491   13.10689403174970
C        -0.15880369327109    0.08877693269568   14.93099706623277
H        -0.88577348356202    0.83946418680508   15.23461822992021
H         0.83327757526955    0.50060516791656   15.12039756192478
H        -1.04196316457488    0.35886107176254   19.90957962941940
H         0.73108715949179    4.81967249140834   17.98377544299253
H         1.62479229604228    3.44938077038249   17.34256676271381
H         1.49321455308026    3.67600123385139   19.07840864227239
H        -2.55635086285124    3.96703619472506   14.59135745040687
H        -4.66179038044450    2.91440319006652   13.74893907470728
H        -5.53580702957838    0.89387556914703   14.94367352661858
H        -4.23696749682838    0.00823621004088   16.87242272972849
H        -3.39959811859890    5.23202539957117   20.20507421049568
H        -5.55290587824868    4.39582754866788   21.15898835488937
H        -6.03279907845608    1.94077666417924   21.01517387038310
H        -4.35492358816691    0.46670577692119   19.94256975672204
H        -1.26560530963091   -2.90899634590415   17.95452858941989
H         1.49868515471650    0.78548746058263   17.29476516338013
H         0.38394893380306   -1.92095816917327   15.45597283063888

