93
CSD_code = DITRUU | q = 0 | S = 0 | Stoichiometry = C44H42Cl2N4Ru | MND = 6
Ru       -1.79647200550966    3.94770275576388   15.15234211988714
Cl       -0.94300934530666    5.74306521305628   16.50872064177047
Cl       -2.59363248998691    2.29460810641944   13.60975525433505
N         0.33140521963339    3.36046437687181   14.68269692632412
C        -5.57876692372660    5.20207048692320   14.12328164979086
C        -2.17307497943385    5.17416899355428   13.53569661177224
N        -1.45317724436763    2.54577629412147   16.64637230379388
N        -1.41433791989881    5.29114323081215   12.43675334120868
C        -0.97258141239918    0.28533423096378   17.31728430714774
C         0.58004177798387    2.31941073645843   13.92009624540317
H        -0.23680880598916    1.93365427551128   13.32208427235850
C        -0.99052498934836    0.65416265549191   18.68672152262714
C         0.31175631892028    3.89927703075668   11.42898111156995
C         1.35104006948992    3.84653652268261   15.42778470846966
H         1.12017585616770    4.70684250157900   16.04230843048751
C        -5.32238707081312    3.98025668655768   17.60358216776217
H        -5.24504843044466    5.02256504767599   17.88026550879863
N        -3.35327807817503    5.74274115169255   13.27003917664602
C        -4.43267916872114    3.46659140545658   16.63827574548207
C        -0.04265256423930    4.96635028576289   12.25878948764482
C        -3.44630037541333    4.33197928449623   16.07355034139147
H        -3.56577482181240    5.34317964622484   16.48179635777684
C        -0.71328106392604   -1.05614371531446   16.96499803714814
H        -0.70197304193042   -1.32711432997503   15.91956470478238
C        -6.65046188589265    5.54672245085480   14.93791233817620
H        -7.52541392959822    4.91351298837267   14.95062875741750
C        -1.21635428456590    1.28190233755690   16.35550793565114
H        -1.23383959699994    0.99687978335970   15.31037849787674
C        -1.47078095827455    2.89505011115752   17.95698131954563
H        -1.65980367373983    3.93989341133683   18.17041005698853
C        -1.25254403124073    2.01160614530954   18.97266481250429
H        -1.27998112626265    2.34882072925394   19.99749039272199
C         0.93065239998928    5.78511704956555   12.84104963895067
C        -0.50369419126656   -1.62125968133743   19.29578997901941
H        -0.32024949276490   -2.37506308719284   20.04715669870834
C        -4.56919343786311    2.11069441904203   16.29051176241487
H        -3.93187728508143    1.69003261500508   15.52935425341179
C        -0.48362074841393   -1.98670476963852   17.93952305792064
H        -0.28472484247160   -3.01454499817149   17.67414740228578
C        -6.27795000352019    3.18317614672328   18.19339063083129
H        -6.94753673367789    3.60024007857734   18.93245462763016
C        -0.75237995640863   -0.32693764608804   19.66614313297088
H        -0.76887264959765   -0.04076280386209   20.70766092986024
C        -4.44463038829472    6.01614416072041   14.13895590069333
C        -4.39279960471560    7.17787549937528   14.91969295386501
C        -6.38359863560912    1.84490832467602   17.84120565836052
H        -7.13229830900289    1.21920037561069   18.30538083315922
C        -6.60658428345763    6.67923119468434   15.72737496296883
H        -7.44854582727214    6.93215837200138   16.35509258205862
C         1.83461273243148    1.68699179319897   13.83158326169309
C        -5.48622620905074    7.49103439482504   15.71385721536590
H        -5.45524419391578    8.37840804856729   16.32942118265965
C         2.26789842699670    5.46803802078331   12.64147399098133
H         3.02869955396927    6.08084055809663   13.10265326429728
C        -5.65894467217078    3.98724830437184   13.25444928513827
H        -4.69193253663809    3.49590343091738   13.18125422611122
H        -5.98570873198900    4.25755485212134   12.24910363448826
H        -6.37576217682784    3.27911726369008   13.66243819342369
C         1.66083922625985    3.62423424747048   11.24322788109031
H         1.94815891413788    2.79299172551844   10.61547588443184
C         2.90164741371243    2.20400496553805   14.60680768192400
C         2.63296017942109    4.39079916256649   11.85660916859042
H         3.67712226395996    4.15321057467068   11.71407149279235
C         2.60923900436163    3.31618186299217   15.42193689316729
H         3.38288923152136    3.75234729217716   16.03540171813810
C         0.54773132950401    6.97874243110360   13.65414323890040
H         1.42502099333124    7.57217668860219   13.89727920783002
H         0.07503638998684    6.67101944235810   14.58801093392563
H        -0.16136090570713    7.60750391157177   13.11792656922862
C        -5.52778672082354    1.31818240256774   16.88554784076569
H        -5.61418632720754    0.27891480776092   16.60140756571922
C         2.06026069329232    0.57796134599633   12.99062812956470
H         1.23693345181891    0.19071590850913   12.40830220331830
C         4.17078324863094    1.60052856318295   14.51562545291527
H         4.98266291859876    1.99832107086057   15.10714198812510
C         3.30367766131789    0.01583908884049   12.91965168741995
H         3.48425416358606   -0.83045879340936   12.27318493371452
C         4.36384560261020    0.53131277436408   13.68484651886994
H         5.33837479434782    0.07121503045259   13.60989736400864
C        -2.06639491528582    6.02108396866040   11.35057757712812
H        -2.07603211110543    5.42221784996042   10.43762326848649
H        -1.52006913799934    6.94939132996956   11.14498227794327
C        -3.46272118847333    6.26291519488353   11.90869497216091
H        -3.74655408536145    7.31960662604695   11.92489399023046
H        -4.23304470864006    5.71005858663892   11.36196075164607
C        -3.16531984376039    8.03191296348677   14.93838040454299
H        -2.35121977784071    7.48914935442087   15.42212934653355
H        -3.34392864868029    8.94873259199120   15.49410896822882
H        -2.84013196504910    8.29039184797138   13.93221796175517
C        -0.72174587241721    3.05171272042084   10.75147072149174
H        -1.59277587475369    2.90846364233975   11.38876768219233
H        -0.30647068549099    2.07736363590880   10.50422984067550
H        -1.04676193935077    3.51560243660067    9.81890353800008

