52
CSD_code = DITTOS | q = 0 | S = 0 | Stoichiometry = C28H19NO2PtS | MND = 4
Pt        1.57618082857624    7.34951498088592    6.91409264376197
C         1.35877945881649    6.81265212139447    9.80423172826180
H         2.25534849613850    7.41637290875664    9.84806399768499
S        -2.07594116313729    4.79992607262677    6.53810210480633
O         3.08467627703617    8.41131322654208    7.91216671041283
N         0.84325600820382    6.60953071231334    8.59481596061669
O         2.24651618763317    8.08177683120635    5.17790104933963
C         0.79394749779444    6.28699865027337   10.95111204292755
H         1.24726710972503    6.47675361333418   11.91049330601977
C        -0.35907117841910    5.51537810900840   10.84341217505322
H        -0.82057885804968    5.09412599579091   11.72339758869283
C        -0.90065506818590    5.29558662299830    9.59426473103388
H        -1.79085004034425    4.70219147049717    9.45686191340244
C        -0.28070019075061    5.85218435095878    8.47470375953822
C        -0.69178855041402    5.70729699471767    7.11550401443005
C        -1.64492670486439    5.21619425014582    4.90428795850200
C        -2.32588870833691    4.83185811536308    3.75947552854873
H        -3.21546509493655    4.22507355376568    3.83318140023808
C        -1.83882275129831    5.23993874140504    2.53473436507143
H        -2.35689908948940    4.95066571584746    1.63230221844375
C        -0.68253004811023    6.01662851334959    2.44917548114400
H        -0.31719405456779    6.31490329524852    1.47726934146037
C        -0.00521705410178    6.40092905592296    3.58327646835513
H         0.89511968655920    6.99141721111249    3.53067207911211
C        -0.47848992008954    6.01444624012924    4.84132979502055
C         0.06424910044419    6.30248955276877    6.13018696177712
C         3.95545297013640    9.14551840451024    7.36609668197431
C         4.90587437320961    9.82918201745875    8.28502920748959
C         4.44616448874125   10.24388117402291    9.53258668751471
H         3.41132421183873   10.07270349144437    9.79191305947360
C         5.29520753809098   10.88059175717533   10.41747440749864
H         4.92491931139315   11.20932474767505   11.37770392825778
C         6.61945483032703   11.09559521325462   10.07304020313244
H         7.28542650129833   11.59130622188044   10.76386497602542
C         7.08974481713147   10.66838643092264    8.84203370125320
H         8.12561960106965   10.82323403965582    8.57726162829342
C         6.23989886508061   10.04079085777732    7.94991888152536
H         6.62096581677409    9.69182322968675    7.00170884660146
C         4.07834088274665    9.39146105981527    5.99281417174998
H         4.83679566431753   10.08762201238653    5.67474224382362
C         3.23741469024713    8.86300242164366    5.01191546418909
C         3.48324448453164    9.26753269118499    3.60040075926352
C         4.76905090036462    9.40220436307623    3.08568601053956
H         5.62520758608753    9.20303225871133    3.71291318887485
C         4.95429626028246    9.75853068285600    1.76243494662361
H         5.95546964151524    9.85416170234935    1.36807155262447
C         3.86222964006089    9.98854249461259    0.94178601048678
H         4.01180505811787   10.26980951191442   -0.09022141938377
C         2.57951873065976    9.85099815729370    1.44617574349622
H         1.72520383979460   10.02598689633318    0.80896628514488
C         2.39005237346967    9.48606500883818    2.76552092353581
H         1.39369474686617    9.37806624720068    3.16804658630563

