61
CSD_code = DITVOU | q = 0 | S = 0 | Stoichiometry = C30H22N4O4Zn | MND = 6
Zn        4.58643796724383   -0.00008440412655   14.99015360081055
O         3.35583651909599   -0.12964570921837   16.52218807483924
O         2.70538869428134   -1.43717866385173   18.19319605057986
N         4.98617809861649   -2.04493465177455   15.58198495933924
N         6.17122962478164    0.66491920473817   16.33014693651536
C         4.26563882813587   -2.31208686463048   16.64589065718020
C         4.28669562227843   -3.55237477471805   17.30896741357446
H         3.65693703902389   -3.66740973968111   18.17724942994274
C         5.09221784948659   -4.54488305939853   16.83141646587248
H         5.13996592035363   -5.51441516834521   17.30768766421079
C         5.87946402260712   -4.29451380197520   15.68825016289245
C         6.73595892512644   -5.26611146741438   15.13193356937002
H         6.78636231203367   -6.23829336031765   15.60141968512368
C         7.48297520821605   -4.98193974509933   14.02333432359355
H         8.13621574170414   -5.73040343036880   13.59944604579066
C         7.40369628076748   -3.71324950671131   13.42783997792708
H         8.00079328007023   -3.50241377392664   12.55310550353937
C         6.58365952724975   -2.74643316626962   13.94166835953967
H         6.52054512839475   -1.76810370475673   13.49331254126318
C         5.79824723723066   -3.00788547208979   15.08261885413515
C         3.35487402789321   -1.20840863214812   17.18583778863119
C         5.89633576853350    1.28705465690035   17.46932881156035
H         4.85128978037741    1.47518141619646   17.66412494935859
C         6.87537704126433    1.66740944049309   18.37246644975384
H         6.60268113948357    2.16944478603311   19.28731119407487
C         8.19956520883202    1.38760996381863   18.07629809884213
H         8.98994089563873    1.66784222003289   18.75739235192372
C         8.48591363755472    0.74125606766228   16.88451709950160
H         9.50147103236950    0.50418087336817   16.60925145302680
C         7.43936730157502    0.39988144665992   16.04374897963784
H         7.61465445792348   -0.09664377036385   15.10129216814026
O         5.81707089500959    0.12953008308631   13.45815466292971
O         6.46721590203581    1.43693468057337   11.78693915706770
N         4.18659268671148    2.04475092266354   14.39827091529622
N         3.00159351724945   -0.66496233969003   13.65012734862444
C         4.90709094292346    2.31188999231004   13.33433459954462
C         4.88594829256712    3.55214293758142   12.67119072133269
H         5.51563392818309    3.66714600517416   11.80285201111892
C         4.08037517078375    4.54462494130331   13.14870184811026
H         4.03263335625390    5.51416548779523   12.67244055136193
C         3.29321563004713    4.29429352981708   14.29193870572121
C         2.43686306129624    5.26596168069392   14.84836908290647
H         2.38619943847333    6.23802026668535   14.37867810979182
C         1.68998436850228    4.98185120426177   15.95707892412867
H         1.03644024448448    5.73016326707017   16.38071555171967
C         1.76908031620490    3.71306544833497   16.55242657651469
H         1.17205850351620    3.50225683669423   17.42721934967740
C         2.58909512715739    2.74623675436755   16.03857568353799
H         2.65238660218302    1.76798907911099   16.48706284001693
C         3.37448893880928    3.00768674666099   14.89761200080213
C         5.81783417738841    1.20821148487909   12.79437157985397
C         3.27640934096455   -1.28684505013712   12.51081051153267
H         4.32151967908490   -1.47461346429962   12.31572600353383
C         2.29736548383920   -1.66678015213232   11.60751734674553
H         2.57001126327189   -2.16827155923266   10.69234340924610
C         0.97324944042165   -1.38696361410143   11.90371444598073
H         0.18300649040458   -1.66700589814543   11.22238816874261
C         0.68693805305739   -0.74093256156905   13.09569340970580
H        -0.32864727603510   -0.50413023896339   13.37126049811017
C         1.73351574341200   -0.39984423963971   13.93654809505255
H         1.55821656365541    0.09606056013270   14.87935827080264

