78
CSD_code = DITVOS | q = 0 | S = 0 | Stoichiometry = C34H35CoN2O6 | MND = 6
H         5.73750761350180   15.02844635429451   18.86228427604366
Co        7.97251283227215   15.95949007826833   19.46783100628048
O         7.69921934202289   15.33247049674480   17.67396012980354
O         5.91279297321668   15.48789175832357   19.69857120716329
O         8.09806401121052   16.52903952613226   21.22833880438761
N         7.65682342552479   17.73113953587357   19.02907742811911
O         9.73600288849326   16.29461367335629   19.12023400576684
C         7.72782900799636   16.07166393909361   16.61728978958946
N         8.20556642220455   14.18016719445809   19.98319020133721
C         7.63181296762612   18.23151136195026   17.84502662491541
H         7.56490812235180   19.31828295175159   17.74415102956529
C         7.67800957071375   17.49428378255523   16.62869712857572
C         7.58317452159311   18.60531237699277   20.18261937126588
H         8.01628975879579   19.58939375626727   19.95523872885487
C        10.65842773648678   15.40598845078712   19.00950225031265
C         5.96187002810890   19.77017946837116   21.70286776446551
C         5.93640318696954   14.53496579164656   20.74624663112038
H         4.95813355455033   14.04759469391968   20.83924841157690
H         6.15509680096587   15.11413827594103   21.64524885273623
C        10.50268915144353   14.01793025890082   19.27896747226713
O         7.70378760077891   18.16925605947245   12.97183175753061
C        11.94441908070227   15.83581494948038   18.58360787454025
H        12.07104696914143   16.88805596654575   18.38201423664468
C         8.38577371719698   17.87326340178013   21.27511169652116
H         9.46112088033722   18.05918514851596   21.10515908446328
H         8.12236006885772   18.26406958869020   22.26945849284741
C         7.76581943642353   16.15882359429294   14.18442513661124
H         7.80255473590036   15.66549181802088   13.22541399203945
C        11.59206534725375   13.13441495788415   19.10486202039856
H        11.42611781341144   12.08920250431173   19.31896821298928
C         7.67260742060458   18.21035817443019   15.41343208125174
H         7.63651972041572   19.28817903737148   15.46953815366557
C         7.71278951680367   17.56379824834310   14.20248937227653
C         9.27648319066853   13.49585198842940   19.75762215863182
H         9.26906579499408   12.42254895865113   19.95844097562149
C         5.45300561050552   12.75508599079964   23.53305143459015
H         5.80494324389756   13.68360401013344   23.95780493085664
C         7.77365516664078   15.44264048729710   15.34721419059890
H         7.81837626676526   14.36407684877915   15.32902884436957
C         7.04933956333242   13.49787282709704   20.54520533953952
H         6.71070524930926   12.72799204756753   19.83286810769315
C         5.95043936909760   22.05547382187787   22.47089535413978
H         6.01788227397985   23.11184067128030   22.25426593041367
C         6.04786177430787   21.13338525478779   21.44482340187039
H         6.18764129165110   21.47509763757960   20.42860358514648
O        13.93263016659876   12.81608051506939   18.49107350122462
C         6.10432260746600   18.77768450087240   20.58835187704012
H         5.72631475842079   17.79990352176238   20.88876529285498
H         5.54296076934905   19.11418297527875   19.71202596617126
C         5.76628067718694   21.62611704474589   23.77433751122869
H         5.69132809124635   22.34520093893078   24.57670194090255
C         7.65604131211450   19.57149537523608   12.92730809601545
H         7.66051817933990   19.83497259213728   11.87061255210259
H         8.52797674615312   20.02073928249335   13.41506323354403
H         6.74231137235032   19.95899944772057   13.39164115199970
C        12.81666622447782   13.58763404233343   18.68557311673510
C         5.77310712913718   19.35086210980858   23.01363010281161
H         5.70049606800829   18.29415329343666   23.22665157417195
C         6.15142305893375   12.17748616001076   22.48071001858837
C        12.98028329678722   14.96263361284832   18.42648813461328
H        13.95032252556679   15.30259627005315   18.09843707110559
C         5.69092761521597   10.97645074001330   21.95281107173825
H         6.23019086573486   10.50907017992773   21.14074989243301
C         4.55654358639829   10.36942462806007   22.46041476947109
H         4.21216806424500    9.43556353017836   22.04081028611813
C         5.67600344060768   20.27128928603019   24.04261312633711
H         5.52973923094349   19.93052471123611   25.05740786524573
C         7.37044042834793   12.83722643958550   21.90181873486687
H         8.15470637342781   12.09039585179181   21.76720370580171
H         7.74810479816804   13.61361473588912   22.56824573367653
C        13.83613909968048   11.43988731119191   18.75157099298027
H        14.82267869758419   11.02858248524698   18.54292000532758
H        13.09880941924158   10.95684299458142   18.10104803517009
H        13.57787649895372   11.24515264352715   19.79830886066499
C         4.31917742637274   12.14832968027597   24.04453469865558
H         3.78816916463607   12.60718885542398   24.86540791210886
C         3.86613035173878   10.95550611143099   23.50778767737989
H         2.98159693653458   10.48162041384120   23.90634801151019

