73
CSD_code = DITVUA | q = 0 | S = 0 | Stoichiometry = C34H30N4O4Zn | MND = 6
Zn        8.08654936687278    0.00006214955155    0.00003433367053
O         9.86158940764393    0.69736294851184    0.53612911101219
O        11.32538294175694    2.30174281485584    0.07608579514366
N         7.93498001984385    2.00381107870949   -0.80669698896991
N         7.23853339045633    0.61764139695784    1.89632548831648
C         9.09102565853282    2.60088457806201   -0.63972482597233
C         9.35161546762677    3.92037121803326   -1.05285791835634
H        10.33949663142526    4.31568520864586   -0.87513934732792
C         8.35517592248502    4.63621974677578   -1.64982598261296
H         8.50678330913116    5.65609281874860   -1.97584776835523
C         7.09856955612154    4.02583162192165   -1.84538636092082
C         6.01797560664871    4.69481665967655   -2.45512591785059
H         6.16013989091206    5.71601125611543   -2.77946695698468
C         4.81898977869849    4.06278875572931   -2.63123024749504
H         3.99359394121964    4.58012301926148   -3.09794780345909
C         4.65468364615523    2.73431786427601   -2.20835831593649
H         3.70304483578277    2.24642343199223   -2.35893828295031
C         5.68169974999349    2.05537078750811   -1.61207901632280
H         5.56853995822326    1.03241157294330   -1.29110962183631
C         6.92823465394233    2.68104662066857   -1.40871318360367
C        10.20715627249688    1.81173490724327    0.04684757450106
C         5.94333702389084    0.84920105670101    2.04329130702718
H         5.35292492998577    0.85265387348536    1.13963676297449
C         5.34208797951933    1.06241648434228    3.28015014814284
C         6.15859034616516    1.03501494274621    4.40117098807486
H         5.73693748250054    1.19177645189566    5.38502473943834
C         7.52314862422581    0.80487589760630    4.26019149231269
C         8.00965801140868    0.59955183605917    2.97650198161140
H         9.05956803787662    0.42108329350092    2.79955433137762
C         3.87078347224027    1.31348003688567    3.37045586250144
H         3.32930437163369    0.59559491956035    2.75844863289278
H         3.63833748348630    2.31073206355914    2.99800200059438
H         3.52463672976732    1.23905850609938    4.39816555589127
C         8.43069981064607    0.76059411217086    5.44832604121776
H         9.47109131151851    0.78259341753817    5.13704261451217
H         8.25921022123805   -0.15388646657026    6.01559532257686
H         8.23890933588207    1.60385927808267    6.10886227411778
O         6.31157998546861   -0.69725791957901   -0.53602930178818
O         4.84783787048042   -2.30177203832636   -0.07624126547319
N         8.23818579942337   -2.00371054304998    0.80672710421498
N         8.93455429167323   -0.61751985498900   -1.89627127787991
C         7.08219883125454   -2.60086360783042    0.63962434765198
C         6.82169024341884   -3.92041328797701    1.05259838118044
H         5.83384780868587   -4.31578131973253    0.87479819116122
C         7.81816867323061   -4.63625725077522    1.64951048505982
H         7.66666804150103   -5.65619093151813    1.97539241039177
C         9.07471770314396   -4.02579163281982    1.84518879172929
C        10.15535474542748   -4.69483309721412    2.45483168733477
H        10.01314666124803   -5.71606588368643    2.77906261049315
C        11.35425582024909   -4.06271044855553    2.63107683649922
H        12.17973455707881   -4.57980920005388    3.09788940298209
C        11.51841786810376   -2.73411101401699    2.20851196294375
H        12.47004576060684   -2.24628183689048    2.35934047583962
C        10.49141222549068   -2.05514444851342    1.61226922187658
H        10.60447568976662   -1.03214687640885    1.29138542846889
C         9.24494718919083   -2.68093012373733    1.40873392647526
C         5.96604516318072   -1.81169906862285   -0.04690201275077
C        10.22970817556542   -0.84937330610880   -2.04315233736873
H        10.82009635983612   -0.85276139688868   -1.13947910316078
C        10.83099316458986   -1.06282855492749   -3.27997078283164
C        10.01457405922494   -1.03528072682855   -4.40104902258803
H        10.43616054782583   -1.19260698263862   -5.38483090758790
C         8.65005184890957   -0.80475249992559   -4.26015606748417
C         8.16349108502453   -0.59928522406165   -2.97649696190226
H         7.11367568798699   -0.42017890602097   -2.79965799752666
C        12.30223814828957   -1.31425761720830   -3.37018279797914
H        12.84374554572024   -0.59722189237078   -2.75716899562529
H        12.53433211151195   -2.31204778626773   -2.99887333563604
H        12.64864589490822   -1.23869782779534   -4.39774340091519
C         7.74266858289120   -0.76008065183175   -5.44840763595568
H         6.70202107416398   -0.78116621454199   -5.13702202922282
H         7.91512118850870    0.15438847071392   -6.01592393270320
H         7.93400641845777   -1.60390865885096   -6.10877591687672

