45
CSD_code = DITVOR | q = 0 | S = 0 | Stoichiometry = C12H24N6NiS2 | MND = 6
Ni        7.06319312378498    7.60050335224592   -0.00057487831088
S        10.43367266431297    5.20517094292469   -1.65880346101827
N         5.78071804700618    6.14109265966619    0.76254938349109
N         5.72952976694769    7.51051017155730   -1.80376111742573
N         8.10018257481942    6.26231610352914   -0.62833782341953
C         4.60465548098219    6.12375341168096   -0.10939028669641
C         5.02869096272054    6.24753798293251   -1.58806049859845
C         6.51908431191258    7.63164379210027   -3.02664398984683
C         7.33723508209976    8.93426724703077   -3.04403770644198
C         5.50606801011151    6.24931006211471    2.19619183702507
C         9.11453790390626    5.85216375741749   -1.06259380923681
H         6.29539448645214    5.27147813445542    0.60857828498881
H         5.04899344057643    8.26928735229852   -1.77643992251755
H         3.96740686475054    6.97191415190532    0.15575879794845
H         4.02326466572639    5.19943983133337    0.02016336846881
H         5.71612004389943    5.43217975453622   -1.83203269007958
H         4.13494976993559    6.15102662750349   -2.22264442457280
H         5.87140907469583    7.61706418514553   -3.91914482453923
H         7.19631257948633    6.77635532768080   -3.08523889521289
H         6.69277478510074    9.75962977249322   -2.73009558796132
H         7.63422489205745    9.11996187240741   -4.07791326273101
H         4.89047392218800    5.39631727125188    2.52528827378520
H         4.93509872721051    7.16282248386303    2.37636228496048
N         8.34582440914181    9.05982783314930   -0.76404050344152
N         8.39686558527526    7.69080327297727    1.80228227354898
N         6.02511272076414    8.93896076693256    0.62551068387716
C         8.62058165992404    8.95143875223020   -2.19763666040386
C         6.78944677792027    6.26672602986975    3.04253232749690
C         9.52172949552942    9.07788768224460    0.10807554754940
H         7.83063441919692    9.92917442285778   -0.61027470104529
C         9.09757019572466    8.95391289908424    1.58670699955238
C         7.60732368683382    7.56952305287501    3.02520666905481
H         9.07760910809942    6.93218991789456    1.77523568951472
C         5.01567435260917    9.34845131284973    1.07120149810525
H         9.23628896968959    9.80434482744061   -2.52679720941235
H         9.19138777265860    8.03779115697943   -2.37773859629328
H         7.43409554215331    5.44151689419891    2.72853789306381
H         6.49249755009498    6.08093258640339    4.07640233430906
H        10.15962830361856    8.23014734372854   -0.15689297774766
H        10.10257864570839   10.00257012763794   -0.02135713181723
H         8.41005745885123    9.76917399376634    1.83075808545729
H         9.99128371026851    9.05040302929297    2.22131429441914
H         8.25503742802747    7.58428085090826    3.91766059875712
H         6.92990767570516    8.42464243245586    3.08388423829569
S         3.69997335152133    9.99045456614789    1.68024959510123

