69
CSD_code = DITWAH | q = 0 | S = 0 | Stoichiometry = C32H26N4O6Zn | MND = 6
Zn        4.55121269380765    3.71739519872753    4.97587323710185
O         2.91159957846414    2.69938335561724    4.56813185125444
O         2.14700108769564    1.11319668974267    3.21411464188673
O         5.56030094260802    8.07522652353161    1.61951795538188
N         5.02828418353430    3.10319032130355    2.96082085676744
N         3.65322057598507    5.54442101949574    4.22709893809939
C         4.05901516522218    2.32829517918018    2.53420759327687
C         4.00285380745551    1.79797471070397    1.23268662745638
H         3.16739531996808    1.16216785822044    0.98475672816044
C         4.99149568967734    2.11364417014826    0.34654035074801
H         4.98180737412867    1.74235178541251   -0.66902944633091
C         6.05049211268378    2.94288979102920    0.77090361110290
C         7.11152984851021    3.31109715789812   -0.08077560671863
H         7.10527846081881    2.94858929988311   -1.09897905528192
C         8.12409748392871    4.10785860971678    0.37464921976529
H         8.93400468533267    4.38881826634721   -0.28252076519618
C         8.11922536531619    4.56191861487154    1.70268828162539
H         8.92979674111503    5.18486013411005    2.05070978452307
C         7.10513490419353    4.22482544797588    2.55643133826870
H         7.09700492012906    4.56530433508304    3.57970734270439
C         6.03857476889034    3.41621663910505    2.11389462241056
C         2.93123005484844    1.99990138130551    3.51356139196294
C         4.39980454890917    6.46984365313099    3.64631263808888
H         5.42779619491545    6.20927592589775    3.44803846038186
C         3.91989917582976    7.72702467682916    3.29649322961889
C         2.58882298202674    8.01328619754993    3.56361448462183
H         2.17167758902419    8.97673288026266    3.30643239809216
C         1.80581129022449    7.04033133013375    4.16462285450195
H         0.76563596210403    7.22470742414151    4.38353958850206
C         2.37969970497973    5.82070795841169    4.47974833038004
H         1.80910045805855    5.02844570722819    4.94067780979079
C         4.85072284401359    8.71922201222338    2.65567828030838
H         4.27779590142690    9.57258508026392    2.26266689887663
H         5.54302072994948    9.09246782824431    3.42576376015738
H         6.26762941411531    8.65243741548609    1.31498091742680
O         6.19081957316468    4.73545515155245    5.38382972859216
O         6.95362438494485    6.32386535357585    6.73627265988700
O         3.54487687884830   -0.63834907964724    8.33627842091913
N         4.07373960502560    4.33212281680998    6.99076484493074
N         5.44947934636732    1.89061553125096    5.72472724117398
C         5.04259427891717    5.10771673547712    7.41704698943631
C         5.09841137263929    5.63874214565200    8.71829495396467
H         5.93350338528445    6.27514468695168    8.96592950051280
C         4.10992842795419    5.32295053747316    9.60457403341014
H         4.11940013357480    5.69472166307120   10.61997054626480
C         3.05137900251597    4.49294994099700    9.18057343816526
C         1.99053206404678    4.12456888273737   10.03241475969295
H         1.99660886808756    4.48750979201125   11.05046503799587
C         0.97834691786216    3.32713233328873    9.57732334381874
H         0.16857617621317    3.04605724750359   10.23461249556725
C         0.98339247497573    2.87259762456784    8.24944700064013
H         0.17307709500116    2.24918747534673    7.90166552192439
C         1.99732194082013    3.20981900053602    7.39556186775876
H         2.00554651338295    2.86903543213877    6.37238738309693
C         3.06354242494038    4.01904788356067    7.83778740943772
C         6.17032311277826    5.43606955414860    6.43762810418757
C         4.70325481506700    0.96552944890366    6.30650249566632
H         3.67516874181582    1.22595010667132    6.50448819550126
C         5.18360990640033   -0.29114120571552    6.65755077933989
C         6.51475993621210   -0.57722442561459    6.39061798331322
H         6.93227062234801   -1.54024466912686    6.64880012399329
C         7.29737669594191    0.39536397746106    5.78849863154085
H         8.33760260608227    0.21112563562746    5.56970695396089
C         6.72305388699867    1.61447683024175    5.47219145366874
H         7.29337411291745    2.40648466749093    5.01048696005253
C         4.25318825912317   -1.28292579314792    7.29960513051667
H         4.82631266113459   -2.13629184468392    7.69232362009376
H         3.55997838646143   -1.65625349676650    6.53038362130780
H         2.83765283225945   -1.21520451956072    8.64172961995611

