73
CSD_code = DITYUA | q = 0 | S = 0 | Stoichiometry = C40H30ClNPd | MND = 5
Pd        6.93919557427485    0.78396592142130    4.80454722575815
Cl        8.10277924809290    0.16562249011222    2.94647297300388
N         7.42764418286794   -0.87728703711712    6.24811752623672
C         5.77393755680967    1.37817467189845    6.45175625641809
C         5.02569095343346    1.32400995912265    5.26796370008212
C         5.44976230247162    2.20334089618786    4.22333371392124
C         6.02538886989661    3.48002577507268    4.60191794883734
C         6.39924911971607    3.73560438750849    5.86169647306069
C         6.28359324435986    2.71025461379351    6.96275707437203
C         5.65675313883569    0.27098925636112    7.48629808832442
C         6.81945881987691   -0.69734951555280    7.42727877706705
C         7.21676524243517   -1.41254473589404    8.55048280015158
C         8.25027552440171   -2.32823216470432    8.44298628406222
C         8.86630548514374   -2.50345755291776    7.21469903887107
C         8.42314896809839   -1.74684865801090    6.14249989714892
C         5.39057225080065    3.33894007049028    8.02867481739299
C         6.11933368069185    3.56787949254928    9.14806381760294
C         7.47636174578860    3.06618834819550    8.96027213536328
C         7.59856810132159    2.55770811119857    7.70828980701146
C         4.03374838058660    3.80454080745692    7.76074928439573
C         3.04678610148264    2.96355624653368    7.25293523972606
C         1.77360215267054    3.44267544183518    7.00552499087553
C         1.46371630315219    4.76729290568530    7.25991990948548
C         2.43622757953548    5.61218967751252    7.76962589049386
C         3.70832189268423    5.13710755102567    8.01891063383318
C         5.64248518322829    4.21608276336531   10.36960099864640
C         4.41717641619388    3.85835589034276   10.92734320147526
C         3.96535701804961    4.47560538561156   12.07807272121524
C         4.72867329072166    5.45810982522119   12.68698059133383
C         5.94572192956996    5.82329865793839   12.13623527087069
C         6.40242252884071    5.20762990606911   10.98626162900476
C         8.51170007024312    3.14372835889159    9.99072565434002
C         8.24290146618013    2.73798907932092   11.29596717129116
C         9.21848256380991    2.83051679081422   12.27101088873146
C        10.47058570710021    3.33245743343387   11.95830603170770
C        10.74611673473216    3.73738922306603   10.66206022454753
C         9.77532460702858    3.64424509328072    9.68358336877521
C         8.73494415634883    1.85049328259470    7.13392708487128
C         9.49946065402542    1.00048658741602    7.93941199780285
C        10.56970217212188    0.30293632454953    7.41652112944728
C        10.90493086261793    0.43729417845787    6.07766787269127
C        10.16904333561416    1.28300190801739    5.26564194951403
C         9.07967776364358    1.98301643424109    5.77654805121177
H         4.30125379620488    0.52904520667906    5.07551749392082
H         4.97097478090713    2.13744701117321    3.24805914854932
H         6.13694651819010    4.23535488365698    3.83517776580705
H         6.77792423902383    4.70141123354357    6.16152937333045
H         6.71796187815605   -1.25314341567796    9.49440374317423
H         8.56756580192860   -2.89522617276111    9.30563722443938
H         9.67262772987777   -3.20741184316604    7.08800696148477
H         8.86505656035442   -1.83342530600037    5.15679949074588
H         3.26862813415655    1.92331634739455    7.07418454052975
H         1.01789592337671    2.77616566106327    6.61564077252053
H         0.46902738171489    5.13911632851039    7.06435159429844
H         2.20138574380035    6.64672272534229    7.97267840848374
H         4.46737180720620    5.79882742762361    8.40934308688246
H         3.82360174665101    3.08868182117020   10.45493023208526
H         3.01449447409963    4.18836883902794   12.50274785953094
H         4.37489864802242    5.93890956400501   13.58695802378874
H         6.54238462563948    6.59255361868018   12.60426938919704
H         7.34643371638571    5.50425316853132   10.55303126822182
H         7.26812153685775    2.34186492457613   11.54260480786780
H         8.99886439548267    2.51336347028302   13.28009297813195
H        11.22968147980496    3.40902118175630   12.72261350575353
H        11.72157048689395    4.12921964804953   10.41384873765272
H         9.98614135489050    3.96314922692987    8.67319743998069
H         9.23610382150800    0.88047125575282    8.98009522095855
H        11.14441094176457   -0.35005284951165    8.05751906119786
H        11.74201297934783   -0.10952568354568    5.67099368332019
H        10.43805421998921    1.40859853021944    4.22732968669720
H         8.60645169376010    2.74926002331320    5.15512404887781
H         4.74308868515032   -0.30977566030517    7.30393465520476
H         5.59257201934378    0.69185475127951    8.49353965639318

