97
CSD_code = DITZIR | q = 1 | S = 0 | Stoichiometry = C44H46ClN2OP2Ru(1+) | MND = 9
C         7.04919104320030    9.68803559450918    9.81141552612646
C         8.53252163199080    8.63318109473240   11.43654117202593
H         9.04563553353368    7.67052894526443   11.47594775829482
C         7.59703174323982    8.71922403619391   12.63850473252260
H         6.86242697806993    7.91813576798290   12.60732929823716
H         7.08373693018347    9.67428687119748   12.64778272126969
H         8.17574799980924    8.62378965884818   13.55283716527585
C         9.58671932159342    9.73699500080843   11.45799712454207
H        10.24280819469114    9.65802832072479   10.59450706550233
H        10.18878886270188    9.64224016483653   12.35700348150514
H         9.11661646671075   10.71458783697667   11.45246825353390
C         7.88595342150799    7.45666056777101    9.32003993928103
H         7.30490336309542    7.66539101227093    8.41604000254658
C         9.32916596041283    7.20310610302367    8.88436208835100
H         9.75650891471790    8.09933589128301    8.44009092927633
H         9.34312491644470    6.41155553859924    8.14005630130728
H         9.95727283280705    6.89302849498737    9.71427605434114
C         7.27258278422285    6.23406952731920   10.00273038681547
H         6.25533961650427    6.44753622231567   10.32551592371905
H         7.85310880682411    5.92462816719312   10.86709041222538
H         7.24443343388375    5.40456988979338    9.30158748210262
C         6.33975323808373    9.66580463798909    8.48513155079351
C         5.10502492826076    9.01246001696432    8.28073724510040
H         4.72302420678011    8.32302736514084    9.02537973047270
C         4.43441707227221    9.14232326466672    7.04181169915116
H         3.53837602257450    8.57159253638183    6.83489259012930
C         4.94336132961247    9.98137855660599    6.03495672126805
C         6.17668358653251   10.66353507915171    6.26282673772314
H         6.61397198004286   11.26455164069255    5.47508023814290
C         6.89998448134299   10.44427443108989    7.43366949799141
H         7.89478816810815   10.86480271464474    7.54844661228653
C         5.50113605995653   12.97196775389624   11.37125061001894
C         5.02804347073816   14.25538469922145   11.10583126552821
H         4.99118949834895   14.59781318561616   10.07873095639495
C         4.62409227231354   15.06498192272711   12.14803441137619
H         4.27041497952698   16.06500088759817   11.94995393169972
C         4.68045869684778   14.59221624956463   13.45128330085921
H         4.36927804143933   15.22747706621060   14.26647323654201
C         5.13986058955988   13.31234818967641   13.71242474507183
H         5.18517745989949   12.95052962279581   14.72874820004994
C         5.55445846667355   12.49721905453677   12.67351527973183
H         5.93435016318724   11.50566532063116   12.87056550411200
C         7.46807765531171   13.17861435350579    9.42722652392465
C         7.53703420341043   13.74726149649402    8.16337784932482
H         6.74368331488962   13.57235427539498    7.44772332499976
C         8.60549164398458   14.56666442586376    7.83975084201735
H         8.65707310869118   15.01858048155530    6.86058048535696
C         9.60151416430011   14.81077740179396    8.77046206973852
H        10.43428626612791   15.44753384582869    8.51355402775216
C         9.52791077491351   14.24678021509831   10.03553009973895
H        10.30020624108958   14.44589925666409   10.76304849450117
C         8.46075816527631   13.43517460160087   10.36856844644730
H         8.37789388524229   13.00008280688674   11.35497593958303
C         4.54901342528154   11.05262772830962    3.94123858357259
H         3.76318707410129   10.98946041174538    3.19171803588595
H         5.51634868236215   10.87851653772226    3.46258147793399
H         4.53049256993839   12.04271321457312    4.40776201484318
C         1.40587063056833   11.38962485899645    8.11265558764798
C         1.56255293711152   11.28549074272359    6.73685896606730
H         2.55443560816370   11.23632239430125    6.30920200599839
C         0.45277285365944   11.27454579290166    5.91011975015899
H         0.58034570225519   11.19994462414463    4.84086117355899
C        -0.81666956737154   11.36426000728951    6.45492841861294
H        -1.68217736568227   11.35789008855674    5.81036545124729
C        -0.97831418501428   11.46998409406961    7.82865815432646
H        -1.96829610559089   11.54458716761385    8.25240363347181
C         0.12564626551400   11.48603392318979    8.65892001948474
H         0.00583303642065   11.57616681513542    9.73013347607056
C         2.66535753034329    9.87291437464801   10.20931528905690
C         3.62637413473958    9.65706836625941   11.19721595321782
H         4.39599081200840   10.40596172390337   11.34839648422531
C         3.59511029453158    8.50681402622805   11.96123446956709
H         4.33136968992518    8.35221653156020   12.73596581163082
C         2.61437680775558    7.55218809426056   11.73141963242148
H         2.58895620076016    6.65121629324851   12.32518003352432
C         1.67142765657824    7.75285498637564   10.73735224125830
H         0.91313411575616    7.00672491684743   10.55443103374637
C         1.69246882175558    8.90928002788737    9.97419591578091
H         0.95281005049409    9.06175650797072    9.20161896994741
C         2.35250904887028   12.72463164729491   10.37664518888377
C         2.16359016959381   12.52369119805975   11.73999695165219
H         2.36435370739938   11.56126162196575   12.18654732811947
C         1.69707125090142   13.56112796738029   12.52757721763104
H         1.54462921238164   13.39924427885409   13.58396777405771
C         1.41457497226644   14.79475944969201   11.96581182854515
H         1.04159321380273   15.59591198971800   12.58544807248690
C         1.60411939094627   14.99758683795931   10.60787769994277
H         1.38190238757989   15.95716211715643   10.16659149943892
C         2.07063463648896   13.96880508140661    9.81281391034148
H         2.21678091213448   14.11935476334489    8.75233571334842
N         6.93139986350198   10.75947009624021   10.54644678450095
N         7.78145442236821    8.63907612415095   10.17544317753283
O         4.24597121329606   10.03853583559344    4.88649490911718
P         6.11363225589233   12.06937648465458    9.93467282733231
P         2.83508614501665   11.39567178110745    9.23314900657928
Cl        4.20613784084997   13.29489792018518    7.26664768406612
Ru        4.87984878889561   11.24527849166616    8.18733385654094

