25
CSD_code = DIVDUH | q = -1 | S = 0 | Stoichiometry = C6H12NbS6(1-) | MND = 6
Nb       13.76490386031229   -4.01131295020629    3.37603647527842
S        11.91956854373613   -5.46380673919615    4.10822917271444
S        14.69937503143549   -4.44304878927653    5.61091890108611
S        15.37776974986081   -5.64235324214661    2.48485907419765
S        12.79024482929589   -4.07669969215693    1.11485318079889
S        15.52279500422848   -2.30990072465154    3.09266043755907
S        12.28842249104287   -2.09201002981232    3.81721089627022
C        12.20387015312970   -5.53577051866383    5.90155741633277
C        13.66289972521965   -5.81822912445578    6.19107102967416
C        15.11030855599634   -5.47137688212493    0.69586527123372
C        13.62979339559985   -5.51179172293162    0.38185848153860
C        14.71717310586680   -0.82740634804080    3.76678324886155
C        13.30661620012838   -0.70634898566774    3.23013655820624
H        11.56098903077364   -6.32615048866497    6.29835080556955
H        11.90470399671841   -4.56907547194056    6.31977473627163
H        13.83951408166065   -5.92268602577203    7.26496709571062
H        13.99454678795479   -6.72171915055309    5.66927396745444
H        15.64076817187085   -6.29446790811246    0.21030270137193
H        15.54755012131259   -4.51529800079795    0.38926965351510
H        13.45260355521519   -5.47206266495253   -0.69617646396252
H        13.16843870484742   -6.41149009463150    0.80158593940673
H        15.32611732091643    0.03169345608458    3.47383686651846
H        14.71124183301642   -0.92463649404156    4.85724359624568
H        12.82904575062022    0.21369800976300    3.57694419122317
H        13.30353999924261   -0.73884941704722    2.13568676692278

