63
CSD_code = DIVGOG | q = 0 | S = 0 | Stoichiometry = C26H34MoN2 | MND = 10
C         0.05231351370686   -2.57819967758603    5.05205643007429
H        -0.32006596927531   -2.86936113953677    6.03060611883936
C        -0.72942673888437   -2.93254547490328    3.96076772553827
H        -1.64846194367430   -3.47090819107444    4.17628881662221
C        -0.49886465283833   -2.62899681451997    2.59421376266511
H        -1.25610753670826   -3.02104442277710    1.91763818739728
C         0.60613463060047   -2.02439864548281    1.96869020489767
H         0.58714592215594   -1.97204613940576    0.88445612173919
C         1.67305893727549   -1.35319796751042    2.61112586310642
H         2.38931054772720   -0.87670356547185    1.94422083208280
C         2.04399016916904   -1.37328919695329    3.97700396211080
H         2.98185167531219   -0.88756308709504    4.22836921252148
C         1.26136257583759   -1.83545338116745    5.04931501880522
H         1.69628703595798   -1.68991485766947    6.03644395690416
C        -2.06367492087017   -0.16712267749866    0.92207216679152
H        -1.15080212295778    0.41305226344226    1.03178066220321
H        -2.61480261095378    0.20802744924322    0.06284740831396
H        -1.81360735704272   -1.20547118198950    0.73247274020904
C        -2.92673689779859   -0.02576845299552    2.17687892241034
C        -4.09699619982985   -1.01853483532846    2.07749331410950
H        -3.73837436758013   -2.03442497152604    2.23151470411346
H        -4.54598928079078   -0.95579220496658    1.08963112409191
H        -4.87154916416647   -0.81078933467625    2.81077499448289
C        -3.44543563469637    1.42230263420108    2.22758690998878
H        -4.09066811796379    1.57937409038447    3.08839074596467
H        -4.00359965861534    1.65826152445220    1.32547588878989
H        -2.59234074819911    2.09459579966966    2.30669871002563
C        -2.79805339069052   -0.14999359349827    4.54124320320083
H        -3.87704879903166   -0.20628197908522    4.60144732359941
C        -2.03018662669720    0.19531747676983    5.62250600370147
H        -2.46913300885046    0.42619411821438    6.58432907271721
C        -0.02295080060509    1.28026264060491    6.26767260813358
C        -0.67640966716060    2.66845686556640    6.14766874471653
H        -0.62823980118603    2.98518845022586    5.10693102686324
H        -0.15053605479138    3.39124220345343    6.76577811793021
H        -1.71937975310415    2.64126397722393    6.45324273852510
C        -0.08136649995259    0.77581463848067    7.71909507651985
H        -1.07788160733691    0.86646102179186    8.14270056702803
H         0.59875239553438    1.35796687965105    8.33546447422481
H         0.21915425369096   -0.26919639717756    7.76300013925840
C         1.44533520717652    1.42164730594695    5.86296197022364
H         2.00453753870205    0.52084180774667    6.09155653678521
H         1.89278402791221    2.24412201665684    6.41617622110417
H         1.51908180629029    1.63522579310187    4.79961570058592
C         0.21471917924593    1.20779743085263    2.83977244867295
C         0.51257795521251    2.25989701674935    2.30817855207665
C         0.84584939713353    3.49799998501914    1.70694400484989
C         0.12919215596811    4.65699736636514    2.01789896711256
H        -0.68982147064690    4.59849380582322    2.72158158488770
C         0.46298104785761    5.86154387026471    1.43570363079736
H        -0.09874566960750    6.75150722494540    1.68589779936512
C         1.51472232490768    5.95375513340309    0.52903161278860
C         2.22462494719539    4.80059196937855    0.21944457707720
H         3.04506705593917    4.85338354857626   -0.48364043720052
C         1.90001290922848    3.58890014049801    0.79635272767869
H         2.46064855224553    2.69861926829547    0.54872496777696
C         1.85857397416022    7.27191337267374   -0.09733355579488
H         2.76130466891521    7.19391832409819   -0.69859865941255
H         2.01411731378612    8.03083854374660    0.66871141025008
H         1.04492957052632    7.61048632472655   -0.73935356380718
Mo       -0.18805716925371   -0.61107930424076    3.70420192349045
N        -2.13112270539423   -0.24925361317132    3.38359875371601
N        -0.73048434224617    0.38156882505822    5.35597922576222

