42
CSD_code = DIVHIZ | q = 0 | S = 0 | Stoichiometry = C19H14N4O2S2W | MND = 6
W         7.44995892441173   13.37625399398903    4.83841859290080
S         7.70521106727314   12.13191834782967    6.96659040982875
S         9.71928780957918   14.22762792226708    5.30717148381488
N         6.79053056350729   15.12962185004683    5.91692506792912
N         7.48388763345230   14.95380429833728    3.34228710946080
N         5.74996989845125   12.83830393079841    4.57907999469290
N         8.11271564624054   12.09101034488195    3.78102998494348
O         4.66218535113301   12.46498248208978    4.31999001340938
O         8.52518845153454   11.31837854137828    2.99719221887250
C         9.43064746070828   12.27167940202794    7.26153113809612
C         9.97288614578771   11.48165967087534    8.27267779129226
H         9.30930806876395   10.82260685630929    8.81164007992088
C        11.31677916566499   11.52961625794313    8.57472813977420
H        11.70977701378106   10.89989522011872    9.35963356056241
C        12.16992853676464   12.37966870663087    7.87581911169037
C        11.63412074489361   13.17397027493611    6.87788718212136
H        12.26750766963241   13.84882620510552    6.31990625880769
C        10.27935582143722   13.13667118027522    6.55862506575250
C        13.63777416123278   12.42822052348055    8.17587594075025
H        13.84951994057218   11.98810140061144    9.14723829453211
H        13.99975657230830   13.45448371475781    8.16591580759889
H        14.19243964473690   11.87123350050118    7.42020405038340
C         6.43073123311517   15.19718393714486    7.18775173103476
H         6.34946589315510   14.25189494860260    7.71525109037144
C         6.18461979817706   16.40495663710296    7.84390404982004
H         5.90091691788620   16.39165821621599    8.88400744368679
C         6.31618915342832   17.59026655422602    7.15830072628503
H         6.14226146359246   18.54045510155523    7.64068518331947
C         6.68796313835374   17.55454048441888    5.80389136846229
C         6.85645465400698   18.71858385250462    5.00259572429971
H         6.68834172557209   19.68026206595538    5.46368803541311
C         7.22284830921337   18.62879554671899    3.69915983532063
H         7.35389837153009   19.51729812671397    3.10013930868918
C         7.44764380791902   17.36608469194221    3.08114594156048
C         7.82644487834423   17.21394320220684    1.73724604236293
H         7.96342425024087   18.08630666767092    1.11671623193927
C         8.01845327746675   15.94357646274261    1.23831102727890
H         8.30955802781122   15.78982699461808    0.21164528273474
C         7.83816862699121   14.84074927332812    2.07025400085478
H         7.98407626328411   13.83479507629208    1.69497002165248
C         7.28988251281030   16.19213605485675    3.84966953161760
C         6.91162140523099   16.28585147998581    5.22420012616643

