70
CSD_code = DIVQEH | q = 0 | S = 0 | Stoichiometry = C25H40N4Ni | MND = 4
Ni        4.08089512061435    6.75141666856984    3.84824428654768
N         2.35106879435491    4.80932070641670    2.06564377331393
N         1.39955581556401    6.69579216134381    2.43654651183846
N         4.16420020342889    6.06160103272241    6.96617792947712
N         2.35964247927544    6.96551024331040    6.23696079150432
C         2.53393588713400    5.99877186560664    2.69210217876842
C         1.13477318175821    4.77113438070898    1.43787274457071
H         0.77683589485457    3.93115678033506    0.88160092008688
C         0.53786573362229    5.96254565499747    1.66511604815509
H        -0.41309468964362    6.33747091457720    1.34356942123455
C         3.25971666526434    3.67595297749974    2.22994536477033
C         4.69716991314532    4.17152742126199    2.09077447074858
C         2.98362699814664    2.59467239807268    1.18485292567598
H         3.00161901902538    3.01413647184721    0.18096718839730
H         2.02459556698900    2.10927398481655    1.35234715562019
H         3.75815632992787    1.83475905107739    1.24994270791098
C         3.03549469203697    3.12513487693985    3.64258462393053
H         2.00817945468722    2.78537761131082    3.76347536589761
H         3.22949571774974    3.92241008419011    4.35968780475750
H         3.70504081962812    2.29223013779786    3.83884656047363
C         1.09013686637431    8.02554196686589    2.91069447296987
H         0.00049300375064    8.10710276736771    3.00340677662047
H         1.42388443074615    8.76383834433610    2.17122257640304
C         1.76900113139927    8.32052843653820    4.24477086583982
C         1.28794661988136    7.39065406806150    5.36450856087284
H         0.52492295816471    7.87554209088145    5.98043658103579
H         0.84419767810218    6.49280105968495    4.91592549366394
C         3.55762508230050    6.47567993211966    5.82571549686204
C         2.23147412842068    6.87314166710627    7.59462531481790
H         1.35928514536939    7.20784282257567    8.11940588672029
C         3.37175307448830    6.31407914709695    8.05597522348969
H         3.65749651976006    6.08959715369061    9.06148982424406
C         5.51395108566164    5.50641963445416    7.06686455229096
C         5.87979609394190    4.79817693743319    5.76369387482250
C         5.58058271136172    4.49270559271892    8.21534018745154
H         4.75121481964645    3.79068338132747    8.15368832427432
H         5.56204387778313    4.97769987763122    9.18833753927780
H         6.50947610233183    3.93277971665849    8.14174775503397
C         6.48085776239327    6.66479917803893    7.33408443340913
H         6.19055358950304    7.20496501654565    8.23374751389686
H         6.46452571434081    7.35375335848297    6.49528162614448
H         7.49310689784429    6.29096179655340    7.46445917542292
C         5.63629748762978    8.03866666755618    3.83136886230586
C         5.45304474204225    9.38251377238785    4.49548833604823
H         4.54724322550065    9.88588451633526    4.15826431071238
H         5.37012713409112    9.26473689522560    5.58178603605024
C         6.65616924677235   10.28908205365882    4.23115033548932
H         6.56104520400673   11.17553777900910    4.87130390289791
H         7.56380219335594    9.76826458290768    4.56376318565564
C         6.94458145689819   10.79758315053222    2.84736032146296
H         7.73007338515201   11.54865962135330    2.91426033743453
C         6.52985817380205   10.56368341031999    1.60936783127925
H         7.04088532243258   11.16047750370059    0.85512609869864
C         5.55019004404350    9.66238245200697    0.91242124793653
H         6.14908749919023    8.96769844518660    0.30901717180236
H         5.00590148630735   10.29503264127291    0.19902660425625
C         4.52066138991768    8.84955786899403    1.70083161790462
H         3.91604815790528    9.52786078828768    2.30316016466167
H         3.85827997448798    8.37693092321345    0.96744685481980
C         5.19750783802107    7.79232857229572    2.53760923289705
H         1.61283020756828    9.36631248189016    4.51044978253113
H         5.39909304218428    3.38008240144219    2.33677223737018
H         2.85467613768516    8.14016723175985    4.10733651762647
H         5.62582191561770    5.44013004849212    4.91129170409382
H         5.76897865610795    7.08323849865019    1.93374351299475
H         4.84703286946389    5.01409678366812    2.78183110291424
H         6.54060422220851    7.52170475670906    4.16264473403985
H         4.88568014728679    4.51479484732603    1.07621489489697
H         5.32907632301922    3.86572704486840    5.67132747419334
H         6.94450362617220    4.58397489137875    5.74085475778106

