88
CSD_code = DIVVAH | q = 0 | S = 0 | Stoichiometry = C35H48Cl2N2Pd | MND = 4
C         2.75681501673249   10.91259344782452    0.83707498576048
C         4.16733882794938   10.34213511217168    0.71371084706672
C         2.00540988869297   11.23342877159181   -0.42105553670740
H         1.39557045810699   10.37338067602188   -0.70245362141799
H         2.66648419651893   11.47249223404933   -1.24661989089742
H         1.33094945395073   12.07012384554475   -0.24716001691423
C         4.09821075427579    9.03967555002643   -0.09780847135537
H         3.72359699046550    9.23835060101855   -1.09818162418731
H         3.44013108918799    8.31786031192385    0.37343637476564
H         5.09003298351515    8.60052455543203   -0.18111221317127
C         5.07522821353326   11.32682067449061   -0.07704915000066
H         6.10266919053035   10.96900417892468    0.02739691702119
H         4.83349477535395   11.23852793929730   -1.13792940184744
C         5.02033172336148   12.79326944303527    0.28262619208197
C         0.92729347441611   11.61115448554906    2.15786713123752
C         5.50875904598486    8.90132732546640    2.31157236414687
C         4.86079978957042    7.70017621632758    2.64295151274607
C         3.37503369461035    7.59976840853347    2.91659494726436
H         2.85836284664907    8.50068309460208    2.55443475222352
C         6.91440625610275    8.94852801105465    2.28231731132876
C         7.72603834274642   10.21908624142518    2.12477091949155
H         7.09886360428063   11.06277837930748    1.82984980871147
C         2.73575751456406    6.37764518950494    2.24768140168478
H         2.97601327376931    5.46605821205322    2.78814738007768
H         3.07516202344798    6.25969697556305    1.21938374428557
H         1.65345467461596    6.48151817103450    2.24290737564822
C         3.16955104740504    7.54445038397366    4.43884917349606
H         3.45828325508270    8.49941287979996    4.89445523040786
H         3.77586040444954    6.75701137508776    4.88079537579341
H         2.12450779014694    7.35384488313700    4.67042827101416
C         8.33786479614589   10.58326472714650    3.48099174428491
H         9.01818434885840    9.80714809241776    3.82068400785539
H         7.54970875460902   10.69606462079375    4.22369826569778
H         8.88818727132986   11.51890370803703    3.40547982477220
C         8.80164228992395   10.09056242557295    1.04124521695998
H         8.37149675243947    9.73092558947612    0.10704854769225
H         9.58856421988964    9.40385165323310    1.33828662828731
H         9.25761600409000   11.06180183593992    0.85920672471452
C         7.63076064730079    7.77791227996534    2.49936340341465
H         8.70850055332741    7.80626803297641    2.48549278115356
C         6.99568689224490    6.57981347824949    2.74577217052533
H         7.57066958743222    5.67908196498246    2.89879770669244
C         5.62071339015643    6.55462407341866    2.84110815103072
H         5.12821255969193    5.63007568145562    3.09526338201094
C         5.37455241548288   13.31035961932934    1.52734916172943
H         5.63314416790004   12.68501650761825    2.37271990572088
C         5.42562305604043   14.67912839721012    1.73673501552052
H         5.73221376525835   15.05034666864990    2.70277393667264
C         5.10458403706588   15.56144263250256    0.72147889019859
H         5.15783589917629   16.62707587535859    0.88713805065311
C         4.68217553214310   13.69749470705932   -0.72199226429715
H         4.40296289532207   13.32785577283820   -1.69929834873793
C         0.79541972642244   12.99874881961120    2.32887934396813
C        -0.45811602520658   13.50549323684570    2.63516083106482
H        -0.57607680059410   14.56273608221603    2.80663950720839
C        -1.42573355973703   11.32611481237539    2.51454152780194
H        -2.29083169218474   10.68614631969585    2.58648308112112
C        -0.18806124997799   10.77054482325046    2.22414739226011
C        -1.56202707006343   12.68084919402022    2.73268346971107
H        -2.52695213364333   13.09671678539903    2.98025188554763
C        -0.06266271510296    9.27464504142369    2.06065212806300
H         0.94336658508328    9.04050106181771    1.69706350552694
C        -1.06004782718982    8.71910554828925    1.04192724270334
H        -0.98935710170627    9.25641065486959    0.09742697172905
H        -2.08030903766613    8.80226397388750    1.40506953459292
H        -0.85455803697111    7.66649051222621    0.85669825952199
C        -0.24428343443337    8.62174643239802    3.43243943460798
H        -1.23914764420228    8.82466772596741    3.81998548989205
H         0.48170374806553    9.03720254422917    4.13031084983224
H        -0.11342975842246    7.54354228660383    3.36827301437552
C         1.59574934092438   15.28412226921352    1.60898793344515
H         1.06362014609229   15.89274880773734    2.33468448530218
H         0.96860271408533   15.16031323668001    0.72795494504439
H         2.49535481753737   15.82085737029334    1.31695466075246
C         2.65853972873087   14.12300406088801    3.56458022530562
H         3.19615672015631   13.21282493195951    3.87819288813281
H         1.91219329297238   14.35257750432992    4.32161003069113
H         3.37117227416971   14.94236882522118    3.51167733633237
C         1.98391956893685   13.92664005803733    2.20042939007729
H         2.71083340449991   13.47548563885436    1.51484757958374
C         4.71653057150148   15.06294186687246   -0.50975251857869
H         4.45161597785527   15.73615103403922   -1.31152231192732
Cl        5.03679020958712   10.76650604288985    5.09551012923308
Cl        1.80988394216452   11.14311105929118    5.14326444872595
N         2.21774718194517   11.05669808695955    1.98648434244974
N         4.74858058360428   10.10224601730852    2.06257342834346
Pd        3.38436895201807   10.77024433601468    3.57143224038810
H         5.37263416494146   10.87368708033603    2.28633230481887

