98
CSD_code = DIVVUC | q = 0 | S = 0 | Stoichiometry = C42H50N4NbP | MND = 5
Nb        9.98456338799203    4.25705424177425    3.13546063124726
P         9.65045772621437    5.63085786605861    5.32076829868778
N         9.83909932875041    6.31639811792839    2.72858367904052
N        11.18755829683590    3.12084609495888    4.43241957101940
N         8.42869539867677    3.41715914303380    2.98160714403607
N        10.89360680765073    3.80177856222248    1.43847792524672
C        10.85598345484475    7.01031935544981    5.36252256283120
C        11.47286104700617    7.47404592557657    4.20046570591021
C        12.40844116589643    8.49903463157945    4.29441823289812
H        12.89137867391904    8.85484614342191    3.39379616312703
C        12.71905042093358    9.07009463180214    5.51357810575510
H        13.44342992604591    9.86945073328870    5.56532722572224
C        12.09378624506610    8.61943632209295    6.66581813834280
H        12.32487696399084    9.06706722234803    7.62097196675512
C        11.17306645116418    7.59319773510602    6.58920932052706
H        10.68945943068985    7.23407652844633    7.48753467254606
C        11.15964116297085    6.87126588820985    2.84233326074768
H        11.33343214576774    7.64086716879394    2.06940232762871
H        11.90296362626632    6.07958517152649    2.65355214609949
C         8.79307674363387    7.20177583631633    2.72769743746721
C         8.92569533920525    8.58809766680794    2.90503650139602
H         9.89869509847861    9.04257223993140    3.02743370986968
C         7.81635063893007    9.41613641832808    2.94666437047874
C         6.54791688692957    8.87507919234295    2.80835184761359
H         5.68246788637616    9.52110620902929    2.85081580934326
C         6.38418997618573    7.50870752941185    2.60792623469227
C         7.49561471661936    6.69093904717449    2.56115972383147
H         7.39985103358312    5.62414917896242    2.39290763051978
C         7.99746167358637   10.89516754808800    3.13354177854745
H         8.85720910313122   11.10648826879976    3.76737077007756
H         7.11170046486179   11.34013823254324    3.58165849411679
H         8.16510647225983   11.37752214124060    2.16949006614537
C         5.01070014656349    6.92290862527549    2.45961771250413
H         4.74200405768457    6.37198871618541    3.36064243310686
H         4.97633429793967    6.23054078879536    1.62144684904662
H         4.27062043549045    7.70373369821180    2.30099952936547
C        10.16587782062741    4.79528383459261    6.86136516966537
C        11.33574879909980    4.03227019972250    6.77026915604383
C        11.87096505888231    3.49354995475703    7.93224194203249
H        12.81194418742378    2.96035974440823    7.89392043293687
C        11.22267787232808    3.63920020434889    9.14708840256480
H        11.65375878068255    3.21047105776248   10.03973637342296
C        10.02358181300344    4.32776353083735    9.21585585813514
H         9.50598026688428    4.42505630397173   10.15879677296179
C         9.50378680829187    4.91782526072276    8.07804844916419
H         8.58653769399174    5.48863074379264    8.13168676484897
C        11.99920443185597    3.81286948609586    5.41848772281538
H        12.27337347290253    4.80603987377570    5.01567337514564
H        12.94367408143834    3.26642193198146    5.57671598163096
C        11.16772210380533    1.74550628184531    4.50397298249810
C        10.80314729420523    1.01562628827162    3.35719783710993
H        10.54452055863040    1.56610761292334    2.46027292396807
C        10.78633881633849   -0.36536009441156    3.34823690951595
C        11.14194524372058   -1.06538388549350    4.49691155209028
H        11.13222555115156   -2.14595307293573    4.49413806604288
C        11.50863130188705   -0.37939525839036    5.64338274143634
C        11.52294407346059    1.00658066995343    5.64118927824392
H        11.78712526105557    1.50809686210819    6.55698492894008
C        10.37856115063918   -1.11430481231805    2.11214018969888
H         9.35057775708977   -1.46444474785866    2.20940327765792
H        11.01418815537581   -1.98494721918577    1.96173356636491
H        10.43981480290347   -0.47650660701886    1.23369598847957
C        11.91024203596110   -1.12965707073077    6.88069159237268
H        11.36141279104071   -2.06551345685815    6.95993420505061
H        11.72441839791341   -0.53609385527848    7.77345044886493
H        12.97469525802149   -1.36715053007816    6.84664053195004
C         8.08853521831809    6.44023053235332    5.76672699357990
C         6.99097326065764    5.58878651281068    5.88282391667176
H         7.14830363695252    4.52437919330998    5.74956666572179
C         5.73777227868960    6.10210690782940    6.15062987624194
H         4.88890508707194    5.43978716388775    6.24434343360389
C         5.56940643900380    7.47208339478840    6.28780848164554
H         4.58773936585508    7.87814324864581    6.48196922572050
C         6.65656642009345    8.32004197938718    6.16693215307032
H         6.52359530746912    9.38680499019144    6.26840302958415
C         7.91753844696044    7.81104509192729    5.91023677412376
H         8.75816435701485    8.48182256278040    5.81079047281057
C         7.32380239323232    2.53268548193217    2.97777495317107
C         7.39926415309207    1.61641367917598    1.74016857355222
H         7.34082924616237    2.21695890614589    0.83533454338603
H         6.57694572679463    0.90520466103932    1.74804161297391
H         8.34227480535483    1.07881932837813    1.74707793071707
C         7.39717195033073    1.66572245929455    4.25186071018797
H         8.33908642344241    1.12106450088767    4.25935751338901
H         6.56808652342424    0.96323294817695    4.29041342709037
H         7.36702353689090    2.30536877641704    5.13211597285988
C         5.98372897356048    3.29424553369387    2.94549793078278
H         5.94229768180983    4.01229975868447    3.75973476041790
H         5.15411385980883    2.59735910428172    3.03936443061698
H         5.88613629813773    3.82953100416342    2.00452397056117
C        10.32504841207287    3.53806213144993    0.13867456825716
H        10.62383158745765    2.54622985301537   -0.23783681547541
H        10.66299751327287    4.28696784977385   -0.59609350084122
H         9.23775578223686    3.58321297646491    0.21176486007621
C        12.33192549518457    3.78311202411633    1.35637245846574
H        12.71947670139010    4.60322346048870    0.72521460311739
H        12.68619611407381    2.83971650845734    0.90829105312800
H        12.78413873144180    3.85855542368175    2.35114402283155

