86
CSD_code = DIVWEN | q = 0 | S = 0 | Stoichiometry = C38H42N4NbP | MND = 5
Nb       -2.48518583505110   -3.45478414848863   -6.79598532195603
P        -0.73594598883751   -3.93062099846925   -8.76461151130635
N        -3.78165598316978   -4.29659788115054   -8.23732788861282
N        -0.76668192176725   -4.15463588753574   -5.83379518028170
N        -2.38700548913359   -1.71177711023074   -7.10377429232398
N        -3.73167276366197   -3.51479073563537   -5.27676970522414
C        -1.65004457008162   -4.78486208377804  -10.11982352090349
H        -2.33690344455726   -4.05072039584117  -10.55930213102179
H        -0.96166096164070   -5.16354421243485  -10.88231078284529
C        -2.42567487875399   -5.90527654205765   -9.48951199430496
C        -3.46109410697983   -5.61280823472744   -8.57999548352076
C        -4.19779834660126   -6.67993940926135   -8.04921864429070
H        -5.03038590300744   -6.45672878795303   -7.39396749818097
C        -3.89622266093913   -7.98826192302750   -8.36774663859845
H        -4.47364951175589   -8.79167837209919   -7.93416317909779
C        -2.86644996962569   -8.26762244061570   -9.25006542966647
H        -2.63306456232033   -9.28832465037321   -9.51214310003434
C        -2.14605966229406   -7.22548917303985   -9.80641965674701
H        -1.36150319620897   -7.43915308158967  -10.52064177684554
C        -5.03947252577531   -3.85855711990491   -8.58049898875202
C        -5.58019718938094   -2.70908345934774   -7.98039763539582
H        -4.99811099092969   -2.20230615801800   -7.21868615576927
C        -6.82388697494031   -2.23798701505856   -8.34687430555935
H        -7.21813033085766   -1.35316394413146   -7.86606806420599
C        -7.57542033635057   -2.88590830056988   -9.31576491800884
H        -8.55000525818484   -2.51489926431746   -9.59474789259247
C        -7.05291612150436   -4.01522417352693   -9.92289472119575
H        -7.61936524514567   -4.52963780906403  -10.68687035882670
C        -5.80802532149798   -4.49480812908064   -9.57100831998261
H        -5.41592318623408   -5.37151657704826  -10.06990851813539
C         0.41792458738113   -5.27586305472952   -8.20900844387233
H         0.73225453275864   -5.86698892221238   -9.07588228549080
H         1.29805760524813   -4.77875382683171   -7.78303947643013
C        -0.23588338807028   -6.13928004269973   -7.17213299432547
C        -0.78500757565843   -5.54251772174243   -6.01978519840322
C        -1.38016500211318   -6.35713346522980   -5.05461216729052
H        -1.75786910098559   -5.88986612509822   -4.15320753308903
C        -1.45090342242443   -7.72720412318927   -5.22557904444473
H        -1.91785217662597   -8.34034419742065   -4.46848143770269
C        -0.90574056891896   -8.31000859834040   -6.35636601854400
H        -0.94693336572897   -9.38008246738692   -6.49139700089016
C        -0.29813737423159   -7.51719278104284   -7.31455939425074
H         0.14162902453377   -7.97719734710677   -8.18847831626967
C         0.38796227559127   -3.55783580736660   -5.41747967211425
C         1.57861597476487   -4.26527223114809   -5.17354802848554
H         1.59399590536513   -5.34247522830635   -5.28387275083522
C         2.72331638931431   -3.60181544754432   -4.77878749109917
H         3.62731446823356   -4.16901955568368   -4.60410312858032
C         2.72388026195471   -2.22823003627616   -4.60595444454027
H         3.62456997718667   -1.71656566131493   -4.30217724763001
C         1.54512588874302   -1.52202944005165   -4.80815778491592
H         1.52861915658037   -0.45232466108825   -4.65294607550262
C         0.39337891075857   -2.16873647847312   -5.19857562535619
H        -0.54137815035413   -1.63599649281680   -5.34082047890891
C         0.44853854304163   -2.83607749558015   -9.60851098409842
C         1.40630954163026   -2.21905974908640   -8.80344781905043
H         1.41885447714094   -2.41881199343079   -7.73876349308995
C         2.32133638420192   -1.34338043306466   -9.35521466731650
H         3.06189949996187   -0.87435445959599   -8.72477258950457
C         2.27925806045204   -1.06072612499387  -10.71189338305951
H         2.99283706726331   -0.37544589718724  -11.14414069146894
C         1.31293792255986   -1.64873732670263  -11.51002399499521
H         1.27028717314854   -1.41910479046628  -12.56466955334293
C         0.39539824251313   -2.52994818298561  -10.96348280668596
H        -0.36055199170869   -2.97162133607800  -11.59590517790940
C        -2.39522787803735   -0.40602158466089   -7.64429817302708
C        -1.01180128936004    0.25917421752161   -7.50323238636774
H        -0.78988954862134    0.44541726770427   -6.45610189148890
H        -0.99297948485978    1.20440295500352   -8.04010717428572
H        -0.24853129042496   -0.39924055226094   -7.91116491001426
C        -2.74577302089522   -0.53122158095955   -9.14243794215089
H        -1.97794093635920   -1.12826990566680   -9.63484076173749
H        -2.79683301181634    0.44787486604602   -9.61215310229387
H        -3.70414453593776   -1.03745164805883   -9.24643828257270
C        -3.44850667477670    0.47191467763127   -6.94012798202596
H        -4.43653383290206    0.03634021883155   -7.06161262899760
H        -3.44627580370444    1.47202712802431   -7.36612238260195
H        -3.22019254588183    0.54047910699832   -5.87875194803798
C        -4.22732008467706   -2.46605335562898   -4.41675307786874
H        -3.76774209223771   -1.52062535745926   -4.70695824502910
H        -3.98059474885631   -2.67374202103017   -3.36372577558609
H        -5.32223945578878   -2.37618550932153   -4.49161051376500
C        -4.33666715604098   -4.76923022900015   -4.91269134212414
H        -5.42419449461970   -4.74597917812628   -5.09890144979800
H        -4.19548608191338   -4.99011437197620   -3.84193304650476
H        -3.90859254861576   -5.59458562296018   -5.48856617004064

