86
CSD_code = DIVWIR | q = 0 | S = 0 | Stoichiometry = C38H42N4PTa | MND = 5
Ta        5.80366996329193    2.79920914545490    3.43750783128442
P         7.58499013368713    2.29701957505018    5.40540266675908
N         7.53868963623880    2.04012357733526    2.47380560772950
N         4.51451083834540    1.89939248285785    4.88687820953607
N         5.94215227716593    4.56283664702139    3.74033884530957
N         4.52181501119159    2.71925027905016    1.92412204342357
C         8.74771744925437    0.95526349954320    4.85005859719447
H         9.62049860085976    1.45638038578899    4.41589029886229
H         9.07138828972440    0.37446259055782    5.71965980956799
C         8.09706804080374    0.07590032152196    3.82571380290816
C         7.52721467728884    0.65316383243126    2.67468905423664
C         6.91322440099340   -0.17438401422116    1.73448425087042
H         6.50835554255546    0.27936506122299    0.84007925597043
C         6.85457090131366   -1.54259275214750    1.92278003081720
H         6.37337117080384   -2.16713941231515    1.18440830042170
C         7.43006356798210   -2.10890988034475    3.04654253977732
H         7.40087309476785   -3.17774556649831    3.19368800878424
C         8.04895865652038   -1.30056411989349    3.98414512791035
H         8.50611260188154   -1.74719437539094    4.85590118353419
C         8.71337451568887    2.63416354959333    2.10142722735027
C         8.75535016050624    4.02944784386911    1.94503773744937
H         7.84093481285832    4.58141653799933    2.11027133737485
C         9.92558339352454    4.66465765263212    1.59052637976306
H         9.93459381323378    5.74035881568574    1.48525088353158
C        11.08913914276513    3.94122663247241    1.36649379492425
H        12.00443070104191    4.44367533361785    1.09237539161246
C        11.05407455296044    2.56223174689332    1.48173094605807
H        11.94545884590834    1.98045589102509    1.29142843813466
C         9.88979087063418    1.91123381079576    1.83825686899269
H         9.87987306876756    0.83094124778275    1.90360168817735
C         6.66281694655470    1.43191404283274    6.75248358627821
H         7.34969072829094    1.06088167512341    7.51925427507712
H         5.97240300823334    2.16371676056411    7.18712998722502
C         5.89131253395613    0.30504147201110    6.13206475141043
C         4.84674064293692    0.58399180478687    5.23204339974930
C         4.11964583222110   -0.48819692220679    4.70270632001449
H         3.28758239252398   -0.27277722604261    4.04591675922995
C         4.43260102692038   -1.79337641204127    5.02356144749213
H         3.86128827421588   -2.60270583562136    4.59326368631339
C         5.46721877330658   -2.06117018773731    5.90342308589704
H         5.70941389691938   -3.07910766360064    6.16823822691082
C         6.18292849759957   -1.01207900336200    6.45192242180041
H         6.97399206023396   -1.21744842428051    7.16099751069022
C         3.26542720080405    2.33961198897174    5.26119418225804
C         2.50488527227902    1.68506367679911    6.24492575289275
H         2.89555947400217    0.79324493831211    6.71624551700555
C         1.26799842707809    2.16401592706757    6.62504768363263
H         0.70807315189540    1.63365748977238    7.38279847429101
C         0.74634423368514    3.31207670416682    6.05412027459654
H        -0.22184650328879    3.68301918736231    6.35462724609855
C         1.49209441648084    3.97921716584293    5.09432898865208
H         1.10103445433042    4.88031249621150    4.64249306769945
C         2.72749386030825    3.50863928711417    4.70047432120829
H         3.30073352349984    4.03512464417906    3.95089164950756
C         8.75600991418002    3.38918386765608    6.27697494864781
C         8.66586213191633    3.70011721168495    7.62899206934338
H         7.89616012350980    3.25721731500682    8.24333719828826
C         9.56417620896883    4.58718115184481    8.19735029446806
H         9.49210738091597    4.81941487013931    9.24981952011045
C        10.54799351198661    5.17846469787962    7.42353496495825
H        11.24591523775649    5.86926568365198    7.87226765129865
C        10.62675272895000    4.89174545319247    6.06953319731498
H        11.38066796092457    5.36317502632407    5.45701307689721
C         9.73137957331706    4.00937876137126    5.49656448433865
H         9.77381466950055    3.80835160248130    4.43400087855511
C         5.92920722591155    5.86280382217607    4.28968170612647
C         4.86168583071882    6.73766698909573    3.60261072517064
H         5.08116793052811    6.82249656141519    2.54140654512903
H         4.85499574132233    7.73176141533312    4.04213654763339
H         3.88060968078785    6.28854755667411    3.72439020978350
C         7.30462383507810    6.54337243504289    4.14028385623508
H         8.07688476547860    5.90102308064778    4.55482836371166
H         7.31065208513061    7.49469671734264    4.66639047752417
H         7.52336317859696    6.72037094982736    3.09133920746560
C         5.59376256917537    5.73299448735323    5.79082204342599
H         4.64047316244742    5.22278245792790    5.90454020269170
H         5.54190358351038    6.71206141123475    6.25998095539695
H         6.36774270060488    5.14162222410394    6.27680154390717
C         3.99817382362718    3.78470264137837    1.10484496783424
H         2.90801844104591    3.87075786273499    1.21360409758667
H         4.21585796389427    3.60947016118963    0.04212996835040
H         4.46403979983436    4.71830890136706    1.41188654614816
C         3.92077507773271    1.46470296623019    1.55669981411696
H         4.37113091193779    0.64312234860085    2.11556998897247
H         4.04368305264723    1.25713406610342    0.48355773617372
H         2.83972834052127    1.47319137736783    1.76635743820531

