35
CSD_code = DIVYUE | q = 0 | S = 0 | Stoichiometry = C17H10O7W | MND = 7
W         0.45565098891803    2.01736894323898    3.57215140492055
O         0.92862222502505    2.90471255665475    1.68653399572189
O         2.38111746003269    2.89565269547928    3.79593447490379
O         0.03097186024916    4.01029620231207    3.95681210849853
O         0.22806034662856    2.15802941914466    5.70623541397985
O        -2.55997688326174    1.15050984889887    3.32673689589941
O         1.95385074463870   -0.70812930551574    4.09472865880445
O         0.09609444312586   -0.54623806847535    1.74829533568269
C         1.88884358804403    3.75640480721552    1.69990006921918
C         2.71315261973740    3.75675805558567    2.91747206318375
C         3.81669362280616    4.59813722005738    3.17189696988236
H         4.26721674157155    4.41774301093429    4.14120912396821
C         4.37855786704265    5.58848257011570    2.39817421541461
H         5.22243317740298    6.09918610779388    2.84683175224691
C         4.02870984108977    6.02274955754566    1.12545105434755
H         4.63174178604888    6.82150123245912    0.71452352858054
C         3.00726364139118    5.55007903531609    0.31549658377819
H         2.92189836048589    6.02801079635647   -0.65299800997056
C         2.07922446363644    4.55911620128519    0.56156181199153
H         1.35864200642942    4.35504287088321   -0.22146729780977
C         0.04699105974255    4.41833842041205    5.17112933368274
C         0.16073712213374    3.34603425040680    6.17608080946669
C         0.17575613669612    3.51529566400381    7.57427778189916
H         0.24757764529113    2.57507569421512    8.10771793432968
C         0.12107376916903    4.66419287851153    8.33145620990519
H         0.15565219944135    4.51174041413447    9.40333503040430
C         0.02687193864771    5.98975526367212    7.92132445968867
H         0.00363150000868    6.72904233952366    8.71102442134897
C        -0.04979429597840    6.47914315679551    6.62795412340377
H        -0.12520343894984    7.55638923819980    6.54032683939120
C        -0.05122974064949    5.79455368450063    5.42726926410424
H        -0.13288062395915    6.39131849929879    4.52560442963284
C        -1.47195979658056    1.49467306346396    3.48568369305433
C         1.31091634054663    0.24744882965833    3.88698977298638
C         0.30019128339796    0.37538484591595    2.44824574345033

