99
CSD_code = DIVYUD | q = 0 | S = 0 | Stoichiometry = C32H51F3N6O3SSi2Zr | MND = 6
C         2.11554230990131    2.21144404174352    1.85479014916463
H         1.05067797055973    1.92947165220441    1.78273972027300
H         2.69573623840775    1.39019092371897    1.40017900736489
C         2.28691965552418    3.41867038954337    0.89602388987476
C         3.78385675366521    3.68835375224099    0.57232047727046
H         4.08685015559947    2.90099621168098   -0.13718791622366
H         3.83242795129379    4.64964139430395    0.02628907970426
C         1.60936688069880    3.00209039929637   -0.42803547366995
H         0.52551790002160    3.04363935562001   -0.33823023540406
H         1.89372441791641    1.98171377222700   -0.67450053078723
H         1.91730542080247    3.63804006230124   -1.25353327180208
C         1.63455963096273    4.68273706021016    1.40793065077339
C         1.25050907820859    5.68998054175695    0.51751934196501
H         1.47542043411781    5.60550874993740   -0.53278929461117
C         0.59295585883815    6.80979731492477    0.98678324177861
H         0.30579218736041    7.60142485393192    0.31006583732598
C         0.28985005857163    6.88427529470703    2.33705797259252
H        -0.25378774270391    7.71905116534624    2.74871996239097
C         0.73099050594173    5.86219558004485    3.15584066843576
H         0.51043466189516    5.89095752699406    4.21542227494920
C         2.67975101804104    1.32661222434868    6.03126861475116
H         3.33168174590615    2.18288060205931    6.15893766999799
H         3.12888602678719    0.48344479634393    6.54224758158151
H         1.74014999677295    1.54020106436450    6.52886607955940
C         3.85155679589498   -0.32247981023046    3.66920367818900
H         3.65748848830748   -0.78354517948934    2.70580510342768
H         3.98076417080040   -1.12280451731293    4.39116505086144
H         4.78950064062292    0.21704482154605    3.58565648955871
C         0.78681189061615   -0.08582066680077    4.08762071562671
C         0.62127553421807   -0.83510759079802    2.76421107884215
H        -0.32128146158294   -1.38443359136011    2.75381171471061
H         1.42720821079391   -1.54992221080652    2.62780698596778
H         0.62412955830784   -0.15499459137079    1.91842057515269
C        -0.40639862527629    0.85728376658585    4.26577227810360
H        -0.39965517063316    1.64037431242318    3.51090233767618
H        -0.37777258072145    1.32520547570963    5.24706073957581
H        -1.34582440656288    0.30897294186787    4.18054030485789
C         0.73811662783163   -1.13146317285120    5.20526632564728
H        -0.19337260441775   -1.69623465963049    5.15812247493464
H         0.80213385284875   -0.66307907682995    6.18215725362011
H         1.56343490858066   -1.83044254933311    5.10824220070261
C         6.73804747392491    4.66345368081904   -0.28172336142647
H         6.38584841543974    4.08235500976815   -1.12796176058811
H         7.80146535173094    4.82773996864752   -0.41559582186192
H         6.24892865877331    5.63237606890360   -0.32148543311459
C         7.22964962200641    4.80298696170384    2.75420075950892
H         6.86821339277896    4.48828021535134    3.72799189075740
H         7.03574535518944    5.86462716119600    2.64451673092115
H         8.30481707820936    4.66040757434727    2.72729449519025
C         7.11640464764839    2.00175030478967    1.35310118685695
C         6.12737943923510    1.03946902791225    0.69204563751226
H         6.49704395897362    0.01438806077155    0.73428793569554
H         5.97572687212875    1.30006218702185   -0.35376337537885
H         5.17268841986872    1.09143145922338    1.21306569660132
C         8.45205814768819    1.93551852949824    0.61244782688616
H         9.16884473111234    2.62415204287833    1.05222912384157
H         8.32711541696021    2.19747640298244   -0.43460869391600
H         8.86900803607304    0.92961533876787    0.66582710867772
C         7.32122452958704    1.54365193154358    2.79835187037235
H         7.58922466040874    0.48707748638111    2.83690308621199
H         6.39694707722920    1.70678403578359    3.35502725387116
H         8.11722284304350    2.11177046184148    3.27369084793043
C         6.10902518459738    1.69497007996195    6.25450634795002
H         5.70773071680453    0.83404448004642    5.74515224090194
C         6.89358897593400    1.59942381667884    7.36900344562555
H         7.12759126897187    0.61930297226604    7.75679267160572
C         7.38548442892715    2.74055122796376    7.99587480822410
H         8.00417738329885    2.67928130692357    8.87475565146102
C         7.04991868643916    3.96194058981458    7.42722221170117
H         7.41396698908595    4.88310196652063    7.85894119588497
C         6.25951177120106    4.03083618613506    6.30838528540711
H         6.01474856502334    4.97391004371785    5.84271765488667
C         1.27772141626768    4.03819752394681    5.61298541377476
H         1.00798586558168    3.40407950357002    4.77278414883875
C         0.38612208438828    4.32295263833113    6.63687357294109
H        -0.62023134059672    3.93425029619702    6.60236503140729
C         0.80861828163696    5.11154796755470    7.69568643629622
H         0.13992026762250    5.35763605700860    8.50745612176530
C         2.11541844916273    5.57063597232225    7.68770811414536
H         2.49586970184346    6.17881706013002    8.49297184829388
C         2.93692845959070    5.23658840170857    6.62114116018290
H         3.96161029827115    5.58357631871856    6.59686582373368
C         4.89689297290898    8.31521747580048    3.42566493762730
F         4.16358559813741    9.29307446400365    2.89209187733056
F         5.94824626174324    8.11430000095559    2.63361770767741
F         5.34767675213422    8.73810055680014    4.60850368323698
N         2.46871019007105    2.37294812204369    3.25319767142999
N         4.66508647055884    3.69970319590927    1.71097067059045
N         1.41430309435038    4.80398075415797    2.72180300473401
N         5.02395510660657    2.91608342014807    4.64471115660453
N         5.75076671892429    2.90493179856902    5.68318525496410
N         2.53453777025748    4.49154423541841    5.59425366610147
O         3.63811624353748    6.27204940893683    2.29303244951842
O         4.74837979239419    5.83480497874021    4.34705626127062
O         2.73330217319947    7.16263242704146    4.38054556996416
S         3.87925115246146    6.74871616641267    3.62772222971200
Si        2.47091511124492    0.92886857415996    4.16643081964275
Si        6.33983016789141    3.79761850337178    1.39401017590040
Zr        3.73699789823192    4.01573516811048    3.52387986919526

