65
CSD_code = DIVYAI | q = 0 | S = 0 | Stoichiometry = C18H37N5NiO4 | MND = 6
Ni        4.29882285422361    0.69510235773288    1.05131031634547
O         4.38537038551500    2.41656072010381    2.04069708536304
O         3.05483171563149    1.38607629435909   -0.04090014888234
O         3.74567209491033    4.33316224522005    2.78732166858067
O         1.67867352041764    2.78235375716009   -0.98870212071827
N         5.77354227987016   -0.01333302973051    2.18393017888057
N         2.95410181440438   -0.09293566926459    2.82245801035978
N         3.62968000773409   -1.38744689279108    0.17045617530773
N         5.66017776294380    0.48461303002607   -0.74944668562184
N         3.59759189159588    3.45487895771209    1.92148230994309
C         2.47217353603045    2.54746845799366   -0.07931237717076
C         2.72756020908529    3.55302645638434    0.94709485922289
C         5.27437119509522   -0.02025781701195    3.56383049238069
C         3.94057908214835   -0.75616818477721    3.66382576685411
C         1.65407402734782   -0.75399820739674    2.67180042640070
C         1.76810938552819   -1.94785706721242    1.70668808074751
C         2.18385663371183   -1.65038753258660    0.25909217993787
C         4.11629224835960   -1.33711360534260   -1.20835916758945
C         5.57071789368742   -0.86985235027975   -1.27170089615640
C         6.99213390152666    1.07329756978290   -0.57491388347545
C         7.68196487642979    0.47113838402087    0.66390785197445
C         7.03856094752629    0.73168204833912    2.03425864395363
C         0.67502495548140    0.28977845599048    2.13071498009358
C         1.10570598374835   -1.27172744370465    4.01509984633618
C         1.74155553867472   -2.83961474360990   -0.60969061270571
C         6.78720186415081    2.57960893327759   -0.40076491483583
C         7.89434366190150    0.83492622393111   -1.79786746907870
C         8.07434922609415    0.36167170561319    3.10748935287408
H         5.95490085869669   -0.98344369050573    1.92009127902027
H         2.78599840369611    0.83187237749506    3.22062847321204
H         4.11270167703213   -2.15150565570997    0.64516439195142
H         5.12702437514778    1.08779616804806   -1.37722219661513
H         5.13928632278985    1.02121833700312    3.86469632892100
H         5.98089511426736   -0.50624505823538    4.24764054728391
H         4.06724927111016   -1.78791817404104    3.32126255004633
H         3.64809068666187   -0.78519422831840    4.72466534735351
H         2.45954271360028   -2.68517317254213    2.12467090593706
H         0.78494574389209   -2.41949060218208    1.68021499944865
H         1.68244861253457   -0.74976632785770   -0.10029072682102
H         3.49056040138444   -0.62125010540162   -1.74560337928271
H         4.05505285572993   -2.31480042530706   -1.70633968173335
H         5.90742390505731   -0.94154094240350   -2.31635643630497
H         6.19611104742548   -1.53634774121274   -0.66962625657097
H         8.69123098572395    0.88429168034576    0.69083374422309
H         7.78677856177433   -0.60925185287102    0.52745444439504
H         6.79201955170869    1.79063303580487    2.14427465745261
H        -0.25602447396016   -0.17792309228756    1.82284113841221
H         0.45029649227881    1.02789831955328    2.89783123278882
H         1.10396381411432    0.80719904988563    1.27937327289313
H         1.67284465168114   -2.12433925375191    4.38198950373226
H         1.13441517928011   -0.48385412296286    4.76498317484834
H         0.07149010403516   -1.58227564648049    3.89413877698104
H         2.29997703491302   -3.73922923274208   -0.35088552775601
H         0.68587165720646   -3.03738431460547   -0.44732356318387
H         1.87266859972156   -2.63456649748407   -1.66775517808102
H         5.99002412155143    2.76266761082320    0.31738208572572
H         6.50218422193166    3.03349515892765   -1.34729406188193
H         7.69659330191154    3.05875221585300   -0.04870396527331
H         8.18907596307603   -0.20858917511365   -1.88292690984807
H         7.37872919935159    1.12753177798979   -2.70998349497477
H         8.79626538748271    1.43520189510488   -1.71359285158649
H         9.01990379180635    0.84668475295677    2.88146744808209
H         8.24465953371478   -0.71442669110470    3.13216645555778
H         7.76960481569729    0.69636646959349    4.09416911554399
H         2.14665602219801    4.45975409979969    0.91116440678071

