53
CSD_code = DIVZIS | q = 0 | S = 0 | Stoichiometry = C18H28Cl2N2P2Pt | MND = 4
Pt        0.11558429131820    3.90200209501819    4.12111251922635
P         0.60606256736000    4.10381261071247    6.33863890532195
P         1.45621088424204    2.06355958941895    4.01981771096901
Cl       -0.95403960062973    5.93069546606751    4.13729149612280
Cl       -0.64022952518816    3.46403872208818    1.99979512022000
N         2.34527086017778    2.71504076825259    7.89302104819214
N         2.74814090625951    0.70930097861873    5.98744445525640
C         1.79285956937870    2.77109811347528    6.70885190720212
C         3.12224645161622    1.64608912272443    8.17535480115411
C         3.74720326430478    1.54156766907544    9.43218071212423
H         3.62056959700056    2.34916892390980   10.13610305535230
C         4.48263422339873    0.42734382410287    9.73138625940004
H         4.96131465124447    0.33921497352369   10.69511316485123
C         4.62362095142776   -0.61538784130623    8.79987219935508
H         5.20728501398262   -1.48345485825927    9.06718855225728
C         4.03637774462145   -0.53927614978713    7.56648266910676
H         4.13885345627446   -1.32555979884346    6.83499009294601
C         3.28151827787786    0.59826809641047    7.22423115381548
C         2.04806483155910    1.78126286494323    5.71988910474818
C         0.96566539447790    0.40019083102740    3.46957429290173
H         1.75719128090902   -0.31314431703402    3.69272493964644
H         0.75094655016747    0.43753607089713    2.40294274239503
H         0.05399855937735    0.12144573523833    3.99793629665727
C         3.05883907859291    2.46745237529112    3.13197218252114
C         3.57915188554240    3.74978719651884    3.78470605798686
H         4.42876431143432    4.14213366600205    3.22874296201909
H         3.89587224567262    3.57004363417790    4.81267068903402
H         2.79011072130203    4.51127194252195    3.78769928159613
C         4.08306895567914    1.34180544093882    3.23715676133881
H         5.04204344676421    1.69039139435642    2.85689230939118
H         3.77814608016062    0.48341294880879    2.64352863513646
H         4.21952165444612    1.01977566818675    4.26764105317640
C         2.71629022545683    2.74057769694207    1.66982354079314
H         3.60345503303294    3.07742094027507    1.13616791488026
H         1.95034759243923    3.51115916550120    1.59373226602685
H         2.34232976737919    1.84428114376103    1.17921416702895
C         1.33870755407195    5.54872180391107    7.16766230608472
H         1.59609797890771    5.29662139139046    8.19498089724373
H         0.62497136438672    6.36972910423731    7.12531679739046
H         2.23622113914361    5.83825007677472    6.62131886220232
C        -0.87486465368846    3.59383989607439    7.37275065725697
C        -1.37350532673962    2.28770403483423    6.75080194880669
H        -2.31323338439351    1.98185104454108    7.20712004754558
H        -0.64826820405602    1.48428229621322    6.88772464254249
H        -1.54390453411437    2.42848838886458    5.67638618986326
C        -0.53035767593641    3.40201294374128    8.84639301164530
H        -1.39065667199597    2.98000557454800    9.36373973339952
H        -0.28886261143813    4.35216158334801    9.31653639610760
H         0.31286413660851    2.72764166791718    8.97913419913923
C        -1.93803014242351    4.67822389265874    7.21543056476652
H        -2.87097465584412    4.35323283597946    7.67274249653560
H        -2.12104477268480    4.88655660666392    6.16201904069062
H        -1.62835073882509    5.60415015455428    7.69575118852408

