103
CSD_code = DIVZAK | q = 0 | S = 0 | Stoichiometry = C32H55F3N6O3SSi2Zr | MND = 6
C         2.33762000534253    2.31737966810091    1.99730057342963
H         3.27672645922494    2.42335199436237    2.57436347636335
H         2.58826895589040    1.71252741031392    1.11804327180497
C         1.36827202852328    1.46241880645854    2.84546252226090
C        -0.02984244363404    1.41116375306377    2.18248158650236
H         0.12780464178362    1.23039261545461    1.10422077883389
H        -0.55026124355412    0.52724981713248    2.57775712593255
C         1.94905561200193    0.03751765327430    2.91212378362312
H         2.94175365521722    0.05479762696204    3.35733144041063
H         2.02960636073780   -0.37040256934572    1.90759258861610
H         1.32106012009087   -0.62951525837311    3.49575054964269
C         1.26732055825057    2.01776884968182    4.24961421831997
C         0.67404525250476    1.29513075368058    5.28602221780464
H         0.15785441219091    0.37046998069752    5.08069521933468
C         0.75755217894941    1.76853620403502    6.58220610025306
H         0.29434172831050    1.22844785033659    7.39459387317954
C         1.47247491654425    2.93227259570131    6.82274665149051
H         1.60566717090142    3.31065271603194    7.82362259428452
C         1.99190750478560    3.60962447264469    5.73480085381986
H         2.56636307062815    4.51916451101476    5.87197638564500
C         4.14928380487309    3.61698118087579   -0.29054178355716
H         4.81631081787988    4.02703619611450    0.46174096821535
H         4.49603616859835    3.97064290470720   -1.25506651647490
H         4.27264078034826    2.54014137748875   -0.27631708399462
C         2.44649832866161    6.06523182812511   -0.08832200416514
H         1.50666167658396    6.54283369988600    0.15726871457408
H         2.70708890742579    6.34472504974617   -1.10232404777041
H         3.21945682704063    6.46684859157172    0.55822362591323
C         1.25687087286575    3.43493465323776   -1.41778887369458
C         1.56087825635369    1.95031028439489   -1.64390441902480
H         1.34007081943351    1.37318687024265   -0.74951446314964
H         2.60549973204508    1.80129433063307   -1.90460788920274
H         0.94999408651442    1.55764904107097   -2.45738019970973
C         1.52124575436860    4.17383064667831   -2.73210070106548
H         0.92294840592894    3.74510517824650   -3.53611149075007
H         2.56894236604553    4.10328245641301   -3.01375560963468
H         1.25962818836764    5.22327389800113   -2.63764549670268
C        -0.22783446918779    3.57163327352846   -1.07154642129174
H        -0.51929912824981    4.61890078856995   -1.08651970813504
H        -0.43054240499389    3.19147111199786   -0.06649877279881
H        -0.83750779741894    3.03192366684953   -1.79809724024869
C        -3.22189644835488    4.24890894493666    2.19573894646156
H        -3.22797117430183    4.69820656600905    3.18334240962864
H        -4.24031315421143    4.26028742485385    1.82220186912983
H        -2.61484649643432    4.86373344693432    1.53537722364602
C        -3.04381611132194    1.61865565980564    0.60729257962653
H        -2.83032928793155    2.25752783472292   -0.24338875500380
H        -4.10367023110720    1.38914131192769    0.58384608570049
H        -2.50541799736967    0.68819921519618    0.45786133995270
C        -3.44576519637249    1.48612891802553    3.66839159321963
C        -2.94495965065282    1.92921169304175    5.04495666880967
H        -3.39507977508605    1.32171097268740    5.83256654383451
H        -3.19807950779437    2.96990093509621    5.23177971676785
H        -1.86249645366269    1.84030427846725    5.11089974198234
C        -3.23261030303383   -0.02534118791363    3.53946350063587
H        -2.18253545837303   -0.28263729048477    3.65822801908210
H        -3.56192703412738   -0.38086918096688    2.56716382194629
H        -3.79713174798371   -0.55785134408415    4.30620021232173
C        -4.95144350878130    1.75697815084005    3.60322680974592
H        -5.36233029812437    1.44757483994006    2.64570897344072
H        -5.15378941880032    2.81516603757289    3.73996735887609
H        -5.47091764587153    1.20752316472067    4.38900360116372
C        -0.81666776039265    6.64707190882531    1.10974251403686
C        -2.07315364533702    8.72476838982987    1.25591963667844
C        -2.21171781812958    9.78670811658280    0.15971732529406
H        -1.25575725775356   10.27752536044537   -0.00436965453009
H        -2.95011528203289   10.53269099703279    0.44327743395962
H        -2.52040519372213    9.31971112193960   -0.77203619128828
C        -1.64757143803245    9.38655403016516    2.57728436542683
H        -1.53663395570115    8.62514037248929    3.34830688953514
H        -2.39929313228873   10.10380811262978    2.89928936773455
H        -0.69991067136443    9.90660336635229    2.44958857627925
C        -3.40645992818845    7.99594180501052    1.46560029960080
H        -3.69911376218165    7.47902944249804    0.55384066176946
H        -4.18814064697024    8.70306842836772    1.73608059902718
H        -3.30033687066434    7.26145394219541    2.26232434589053
C         3.21606740718950    5.70553051495734    3.24079018144139
H         3.40856038685870    4.64435791899110    3.34441390647670
C         4.25490810863930    6.62394086045508    3.23505070985672
H         5.27502452694213    6.29151984732158    3.34925983296843
C         3.96045471539015    7.96915300172951    3.07007037716685
H         4.74532154031812    8.71087267252196    3.05237542805493
C         2.63276950673074    8.33392028583319    2.92509663623031
H         2.35243120067264    9.36596347473327    2.78658737581182
C         1.65669967894864    7.34707368226800    2.95845760930411
H         0.61102211403261    7.60996048123413    2.85923687549772
C        -0.32829157279276    6.21940859557765    6.13399777460754
F        -0.16551247750883    5.59934110506309    7.30388454934058
F        -0.65221520627051    7.48679656349587    6.37945929584982
F         0.88334058871467    6.23051310702740    5.52196102734275
N         1.83211215904034    3.61913867190286    1.60544548095964
N        -0.81711584066928    2.60720481992436    2.39596436366013
N         1.86304253555527    3.19393548334882    4.47625825325250
N        -0.41554432330942    5.52089261025175    1.16779572077854
N        -1.04638073784073    7.81600925411474    0.83044194716481
N         1.93388379311329    6.05312218651738    3.11387462971867
O        -0.63849990859555    4.08552810014669    4.75969196369335
O        -1.09985333124121    6.14416794800698    3.70738781711822
O        -2.71031508877478    5.28734230643622    5.37350879415362
S        -1.38910121672838    5.32290201260478    4.85731315066185
Si        2.32254049325519    4.16020765407586    0.05383579921582
Si       -2.51491335263519    2.48252682476721    2.25640370250944
Zr        0.25820562549943    4.36924775192815    2.73824596790523

