25
CSD_code = DIWDIX | q = 0 | S = 0 | Stoichiometry = C4H12MoN4O2S2 | MND = 6
Mo       -0.63825423645566    6.74580487295916    7.01999483433047
S        -1.33254914364739    5.90506729721923    4.75255591844068
S         0.08991377298349    8.57863502992391    8.58206242873322
N        -1.84151252739745    5.98572669235222    8.05299059084298
O        -2.60259614185596    5.43550411254847    8.75289421831068
N         0.49842678536962    5.46971165529297    7.43494134084092
O         1.21175142337840    4.59569828313558    7.74979533719948
C        -2.67625618919501    7.10010027403187    4.41198849635498
H        -2.27545144981598    7.88282045308149    3.75970284239255
H        -3.45298190640293    6.55897323560154    3.87214988145200
C        -3.22590828893475    7.69352648331636    5.69464386654314
H        -4.01710412826739    8.42309082552443    5.45955367731704
H        -3.65415868740705    6.89387237422075    6.31007154817421
N        -2.12683552898943    8.31536411050100    6.44385457581026
H        -2.47835456610669    8.70094791185590    7.32540346306948
H        -1.78075727963913    9.11542418055027    5.90463481873527
C         1.49924093138959    9.22883836956563    7.61222144215926
H         1.15891808726827   10.12252690283126    7.07921388763859
H         2.26883925383895    9.51971333629698    8.32674329953178
C         2.02956644445555    8.18991509344417    6.64324750099351
H         2.85979725688731    8.61541130000012    6.05741804397553
H         2.40074959403083    7.32512325569367    7.20530506411063
N         0.93380331034307    7.74111067374512    5.77503662588083
H         1.27150130465095    7.02155332349538    5.12874959954128
H         0.64171190951927    8.53053995281309    5.19012669762071

