61
CSD_code = DIWJAW | q = 0 | S = 0 | Stoichiometry = C28H20N4O7SZn | MND = 6
Zn        5.33390373718706    3.72883617528768    4.48134029601162
S         2.99172143683894    5.28297260103433    4.59053987231259
O         4.42923918944886    5.29136397134037    5.01968489288345
O         2.46196624630152    3.94003531820180    4.57300419460010
O         2.23957549322570    6.23603979022967    5.36653168729920
O         4.65714239701692    3.34433343117259    2.76293419508566
O         2.91020861922545    2.73231454235992    1.53822518446448
O         2.70705514158831    9.97283183795646    2.26941971909511
H         2.66527683465923   10.91405844739088    2.03802732154051
O         3.32430506644542    9.78413228939087    0.13754739764785
N         4.29165309192137    2.18728188591962    5.37083470249815
N         5.98707705253067    3.78198495703895    6.54396985089583
N         6.99516574042220    2.49775297969230    3.91165403825213
N         6.74711344382053    5.07169150970250    3.42704381231091
C         3.51514399182981    1.35347090386473    4.70172481539446
H         3.79735380507268    1.16274510996686    3.67671805248159
C         2.37886927814035    0.78543065029252    5.25558218483460
H         1.75645620938411    0.13264158935329    4.66553150649943
C         2.05214174247533    1.10724072206600    6.56096839022621
H         1.16509937395085    0.70191139767304    7.02536194810597
C         2.87130379018701    1.97349635382833    7.26531122245094
H         2.63118221830062    2.23403999543079    8.28346409350031
C         3.98459159581882    2.51363501244199    6.62912374311248
C         4.89079983384010    3.49105964896247    7.25099608999805
C         4.62514193672800    4.11756224221243    8.46690517782955
H         3.72446966797948    3.89969739253804    9.01641273265396
C         5.51621107952408    5.06154167756638    8.94590353574391
H         5.31795130252350    5.57507724401561    9.87507897314801
C         6.65614385610184    5.34278226673681    8.21027325743694
H         7.37347328016984    6.07340931004443    8.54913442383693
C         6.84004208406455    4.67559277452507    7.00991025547015
H         7.70331585087144    4.86442819190957    6.38724959739229
C         7.23736479293660    1.26129955785306    4.30591930445703
H         6.76380738908394    0.96292539789568    5.23012449074973
C         8.04333820672330    0.38609049523785    3.59449151033258
H         8.20869111651704   -0.61891858695671    3.94848917854188
C         8.62421577184576    0.83740951825799    2.41987332935733
H         9.26115170240667    0.19103889810164    1.83446622555976
C         8.37490710649734    2.13460989294396    2.00765117526462
H         8.82922679400072    2.51524765077460    1.10715109488782
C         7.53856029217474    2.94110810894375    2.77827786331162
C         7.20613326781575    4.32736122447842    2.41802448065705
C         7.32599189451153    4.83305733523769    1.12661082469843
H         7.65405150046897    4.20493519400989    0.31413772180730
C         6.96248132602117    6.14871366694350    0.88974821978187
H         7.01543415972039    6.55945891718220   -0.10742957474527
C         6.52735646236695    6.92530911755605    1.95037739394880
H         6.24527686792072    7.95587137734996    1.80672040188730
C         6.43349749319436    6.33592728392513    3.20348222775532
H         6.07492087093102    6.88589652350628    4.06143928199727
C         3.34681938858120    5.05614337587042    1.85235803046344
C         3.09225574338995    5.91038506659949    2.91228515598863
C         2.97384482726563    7.26981246703372    2.72416852783280
H         2.76010768595145    7.89255793166524    3.57805173064744
C         3.13370034968216    7.80389256885559    1.44647560688998
C         3.37496189377466    6.94943705532828    0.36873936788512
H         3.48288092413356    7.38002197057924   -0.61606826382783
C         3.46777323075402    5.58714368888804    0.56924847939697
H         3.64058300286171    4.91724925248650   -0.26010004922615
C         3.59854883849337    3.57228149255976    2.08191264802780
C         3.06802271237003    9.25744133676864    1.19456645067791

