41
CSD_code = DIWQUY | q = 0 | S = 0 | Stoichiometry = C16H18N4PtS2 | MND = 6
Pt        0.42591313476148   10.58703732413004    4.81308756257408
C         0.14561553776021   12.63010564773551    4.81901620753226
H        -0.71470851385669   12.93421852444272    5.41467064521245
H        -0.04197551736564   12.92834437544307    3.78380479829640
H         1.03092896880889   13.14770403769304    5.19172909457110
C        -0.45289776156935   10.52065222166202    6.67739533578314
H        -0.30522262161539   11.43957609665421    7.24414142713342
H         0.02874126111443    9.70735313946379    7.22747886744823
H        -1.52343498938856   10.32363926134949    6.60133662083674
N         1.56712619047511   10.44316050174226    2.93297490927534
C         2.13334268739053   11.45600968150473    2.29313269652859
H         1.83279197171710   12.44779952287597    2.60489246986844
C         3.06669637638368   11.30052657071157    1.27897908473863
C         3.42340826824224    9.99635721831892    0.94612525691285
H         4.16106030797638    9.81698253924304    0.17774885662444
C         2.83724924895853    8.93859412105619    1.60758622627954
H         3.13049174491944    7.92882952220628    1.37704210282714
C         1.89289017039862    9.18725595851673    2.60304822561917
C         1.23563910580122    8.10148667535633    3.34182610605025
C         1.20096248144594    6.79420550833110    2.85996948986706
H         1.63623967283686    6.55553321602389    1.90486779309167
C         0.56859664040455    5.81343491247526    3.59530092524466
H         0.52910879858914    4.79872475799273    3.22737679665388
C        -0.02734865223930    6.13970742107380    4.80924908174526
C         0.03801170663678    7.46928480412230    5.20320788594132
H        -0.42634811799778    7.78127744552055    6.12961907286292
N         0.64268230823364    8.41528226695560    4.50124376389610
C         3.66399706540212   12.47722145443048    0.58132466518638
H         3.36433045768177   13.40736786616894    1.05641577204686
H         3.33954978387891   12.49728411455071   -0.45868414980442
H         4.75043990544112   12.40994396048891    0.58917006111100
C        -0.70127728414161    5.11747649592100    5.66316602489133
H         0.01192411167810    4.71010925172399    6.38048851838492
H        -1.07756165068525    4.29678547972996    5.05761161764675
H        -1.52453210237095    5.55805999005392    6.22029729230072
S         2.57943211399546   10.86959120167918    5.95049355705589
C         3.26474813429782    9.52475115818993    5.29381310502535
N         3.76690319349575    8.59548217326556    4.82779369532578
S        -1.77823096626801   10.39065054065110    3.75673888923435
C        -1.22563966736257    9.61393162670528    2.41457783765700
N        -0.85684350391495    9.05236141386421    1.47564181054264

