35
CSD_code = DIWQOS | q = 0 | S = 0 | Stoichiometry = C14H14N4PtS2 | MND = 6
Pt        3.51546654085095   13.09270545382603    2.98712795055871
C         3.72146988168568   15.07808454710386    2.46996219296341
H         4.59358966509367   15.25959157833318    1.84239016243976
H         3.85657972858292   15.63611098783349    3.40075802935025
H         2.83371301931893   15.44384102628615    1.95196691168784
C         4.45968087442429   12.59646434508288    1.22279737851556
H         4.00859822875718   11.66283310027027    0.87502163395967
H         5.52925792444732   12.44844203957155    1.37993226693619
H         4.31950774622391   13.34566618794688    0.44419412297092
N         3.36851496589045   11.05857597947935    3.83215728930209
C         4.03886174347445    9.99727305619087    3.40611929202801
H         4.53071854814649   10.09168363694552    2.44732438706418
C         4.12612859122691    8.82187539649904    4.12871330926723
H         4.68139326116105    7.98496543595825    3.73734307146884
C         3.49712131123435    8.76138107723213    5.36233133330711
H         3.55461453950443    7.87012172406385    5.96847826558117
C         2.79973278691596    9.86638299148486    5.80990288020686
H         2.33164192596261    9.85298601200615    6.77912917943572
C         2.74141628727514   11.00996359307927    5.01510891641935
C         2.01442400239355   12.21598379415213    5.44241034458652
C         1.04187915925131   12.17295449507886    6.44011333692029
H         0.77572592192069   11.23673765150727    6.89963920756421
C         0.39270230316964   13.33514367674801    6.80828486390498
H        -0.36544763310452   13.31688878389987    7.57639079965626
C         0.72697966422353   14.51901545707817    6.16972368162324
H         0.24959093085641   15.45108212715802    6.42520908697305
C         1.68668554423999   14.47845400654005    5.17530325601614
H         1.96267717329694   15.37658590408767    4.63924719393148
N         2.31200036568336   13.36477855587414    4.82030233807162
S         1.39445131435327   12.98456037318864    1.75855296827979
C         0.73662609316576   11.83101966976378    2.73122381497132
N         0.26106675188319   11.03590612318819    3.42055827585095
S         5.68567626010268   13.27365661826673    4.11717452420198
C         5.11116779016528   12.79752766658827    5.58422042245918
N         4.72268678822835   12.44345692768494    6.61218731154426

