93
CSD_code = DIWVOX | q = 0 | S = 0 | Stoichiometry = C38H48N2NiO4 | MND = 6
Ni        9.08402123549347    8.33688510982604    4.82047718228211
O         8.27884284652980    9.59027885858710    3.57599985244775
O        10.46244412157765    9.48568271203075    4.81845384270145
O         9.96312514546500    7.00291276670480    3.64894354218121
O         7.69406869997688    7.19206710033549    4.75789252704520
N         9.95265731204407    7.38777432501906    6.62826408326914
N         8.03937150697064    9.25919126550964    6.60682170788865
C         9.19703910788257   10.39452683532373    3.12390137162166
C        10.40605337167503   10.41072958272595    3.89739654466322
C        11.46618880815652   11.28350263774795    3.57550325199432
C        11.27574854949235   12.08542484447806    2.46890608944999
H        12.04429947699069   12.78036829206566    2.17085446377050
C        10.12332982433302   12.02669715289152    1.67923607577424
H        10.07316417333280   12.68684608100486    0.82827030810053
C         9.07670547007339   11.17048961706708    1.94884819615914
C        12.72688680167173   11.27680876612069    4.42233748709724
C        12.34876363029781   11.52127352265176    5.88913909473703
H        11.66252496256036   10.75197428207136    6.23286011452696
H        11.86775927611062   12.49168223384609    5.99838378939652
H        13.23804209056211   11.50137519484061    6.51663650524629
C        13.72893303937944   12.35092435294279    3.99263920561056
H        14.06797937804417   12.18422474887506    2.97300775728620
H        14.59853030949654   12.31603458698441    4.64626104536345
H        13.29077008812941   13.34395830711178    4.06379843642877
C        13.38876879648773    9.89849184594499    4.28452459677065
H        12.69811255312680    9.12024564257413    4.59661148383186
H        14.28305583061397    9.84455251076452    4.90288414787014
H        13.66894255688818    9.71826825723983    3.24865816480887
C         7.81448123068468   11.06555938810595    1.11125792015019
C         7.83091658140193   12.00906319729738   -0.09374290557814
H         8.67054323870883   11.78985234464957   -0.74922815215823
H         7.88833192797141   13.04813629746785    0.22306793989789
H         6.91362804187519   11.88020492342604   -0.66516501985837
C         6.59975582936566   11.40754991451577    1.98434804403777
H         6.53015234080624   10.70328335692181    2.80856386316753
H         5.68507587228291   11.34949404651544    1.39739357731993
H         6.69286760696707   12.41513012712482    2.38666555271827
C         7.69133757919777    9.62121204871679    0.60618729496184
H         8.54323628566269    9.37021551300420   -0.02255230586100
H         6.77974308205255    9.50087833589084    0.02384027358093
H         7.66080541660235    8.92818563073883    1.44240481596775
C         9.05936348455824    6.19460944585208    3.18708636851195
C         7.81025621769500    6.21504956657113    3.90110081406071
C         6.77206314641454    5.31583771375055    3.57980940254830
C         7.01410668274672    4.46088088411080    2.52445671445545
H         6.26303895742586    3.74595563229439    2.22912301599230
C         8.19871372684590    4.49051110455378    1.78171778980419
H         8.28948518646573    3.78823442214314    0.96868186193188
C         9.22748736810718    5.36689220548538    2.05229777752279
C         5.47285901716178    5.35985303434761    4.36593460602954
C         5.78093461504915    5.21539694849159    5.86227207901525
H         6.26862192977480    4.26192136357719    6.05743621532229
H         4.86120934572570    5.26118054977867    6.44283999771309
H         6.43858936164700    6.01634786890107    6.18924457844970
C         4.50387142743648    4.24665090037321    3.96027718049774
H         4.95234270931482    3.26665436255508    4.10746906148159
H         4.20509700335861    4.34810107976676    2.91976526094712
H         3.60744374991547    4.30576836120616    4.57473755308949
C         4.80391985951664    6.71747025291236    4.10815408513409
H         4.57165871443137    6.82676445765932    3.05079111553521
H         5.47072748338846    7.52377362131295    4.40067065970631
H         3.88060364650844    6.79916286455829    4.67899768503436
C        10.52305915154045    5.43955676466840    1.26341091458768
C        10.55818332047652    4.44383786614428    0.10157566469129
H         9.74264576739535    4.62686302675960   -0.59415488301189
H        10.49579232707096    3.41933182469752    0.46192356156465
H        11.49567845973784    4.55487875201289   -0.43997440636035
C        10.66175776418023    6.86096789166515    0.70064221072815
H         9.83670190472975    7.07837173746106    0.02529020388610
H        11.59712363354303    6.96153230213022    0.15337195479935
H        10.65260525630064    7.59031634394999    1.50589565249111
C        11.70357240465409    5.14154050307293    2.19746252119476
H        11.59491023653320    4.15461550313006    2.64448766511363
H        11.74176924482289    5.88463710281176    2.98874276190576
H        12.63977654024104    5.17260688027280    1.64337556325915
C        11.07437001544776    6.69001605210537    6.58008230430442
H        11.38243950740953    6.36325459040142    5.59573224222361
C        11.81415134192863    6.38671258441615    7.71352731714938
H        12.72204423269840    5.81055944939737    7.63394987337588
C        11.36154700153937    6.84497587386212    8.94075641449515
H        11.91619297226352    6.64023130353224    9.84464529240107
C        10.18712770732358    7.57615905377866    8.99173075539783
H         9.82115401708136    7.96608291494058    9.92848973963670
C         9.50016143696290    7.82615444350190    7.80619956638418
C         8.24732997389802    8.59795645833347    7.74951756360324
C         7.32447427941709    8.62324039895720    8.79205120210333
H         7.49894637659632    8.05505279570511    9.69226549964896
C         6.16505992070494    9.36378672100427    8.63675839115714
H         5.42870039478031    9.39613419653797    9.42623485088397
C         5.96433408108921   10.05478473090589    7.45212500937875
H         5.07559090604958   10.64498289838543    7.29566831442464
C         6.93194853473555    9.96702068711487    6.46208670322271
H         6.82145365840977   10.47906515046946    5.51541398589272

