38
CSD_code = DIWWOY | q = 0 | S = 0 | Stoichiometry = C12H23AuBrN | MND = 2
Au        3.08398386517772    5.97418853522554    4.37215551353789
Br        2.86019420189946    3.71445562208825    3.73329653178277
N         3.32839291992279    8.12736328334683    4.92704539986863
H         2.37118068230879    8.45125010449213    5.06595869276447
C         4.02361267227009    8.28313790312693    6.22016700114314
H         5.02951031320124    7.86795768221240    6.10229774516405
C         3.28054613264763    7.46880297867189    7.27983743450682
H         2.26356408586858    7.85718024040358    7.38539076356691
H         3.20794297016895    6.42805964972141    6.95138565053438
C         3.99122142694683    7.53895573491102    8.62719173998947
H         3.43967290016866    6.94953451867852    9.36106248734597
H         4.98990091942320    7.10724287437841    8.53350890685364
C         4.10276772715065    8.98722191698454    9.09037351115024
H         3.10281589529043    9.39923552229344    9.24431529215870
H         4.63469999926441    9.03535336359455   10.04164552534690
C         4.83848348317963    9.81339950654432    8.04194690016829
H         5.85837923850031    9.43664880829869    7.93525226663778
H         4.89957171047875   10.85567606127961    8.36046617020473
C         4.13258554981809    9.73758026783745    6.68938888120058
H         3.13016838896166   10.16699847160882    6.77444710567587
H         4.69801166724130   10.33096379091860    5.96880151285576
C         3.87129266935030    8.88423355509806    3.78077948967477
H         3.95394818925209    9.94891899826933    4.03871506516897
C         2.90126099852952    8.76085383581570    2.60562241241394
H         1.92228753259519    9.15690517275321    2.89001800107066
H         2.77460931731190    7.70200548595438    2.36091348815749
C         3.42631414481384    9.50199984567252    1.38018800247403
H         2.72168511925153    9.38442642162388    0.55566414699484
H         3.50559328955857   10.56881916653867    1.60396928477950
C         4.79532926703929    8.96123127991372    0.98322548622410
H         5.17257877025675    9.50241638070745    0.11421481024667
H         4.70446982333962    7.90796432496791    0.71050003441778
C         5.76958768565609    9.10190603093151    2.14711209966961
H         6.74483165174427    8.69873668845940    1.87056279445252
H         5.90091543078362   10.16062979813765    2.38530196169967
C         5.25013946376835    8.36601532202249    3.37942908942331
H         5.17455882805279    7.29623395588849    3.16505896366010
H         5.95659106880779    8.49589690062896    4.20108983701492

