47
CSD_code = DIWWIP | q = -1 | S = 0 | Stoichiometry = C24H16CoO4Se2(1-) | MND = 6
Co        3.87678336612598    3.29678908754305    6.39849388206378
Se        2.20343375515573    4.87915964452546    7.15296136924887
Se        4.64994105968327    4.53195293825853    4.46194494350585
O         3.37457649802718    2.23114511609505    7.87459869084461
O         2.55721386609614    2.49329763922501    5.29805778364621
O         5.13919919857652    1.97588827269348    5.92100018131046
O         5.15845563506247    4.22314770285629    7.44593463143410
C         2.01030961420856    3.92858115170349    8.81861689852230
C         2.67945392294533    2.68354028156881    8.85519378133077
C         2.51734838769522    1.93710369999273   10.04614063122995
C         1.76625587803016    2.42054546348611   11.09106514936327
C         1.13673617789281    3.65920713288331   11.02422655733089
C         1.26200927206560    4.41575948202367    9.87340815130242
C         0.85160875820946    3.92907649669853    6.13615079287560
C         1.31568732144163    2.83576046069324    5.36598516056760
C         0.33230445382300    2.14023420423979    4.62662099227383
C        -0.99062908718531    2.50925113903657    4.67429132742148
C        -1.41418481606302    3.58448020834015    5.44788555912737
C        -0.48127064205383    4.29606870842665    6.17818166494262
C         5.62602393537710    2.99349154548213    3.83283679698444
C         5.69320853702915    1.93086893102716    4.76318197400752
C         6.44041475693627    0.80273611718478    4.35005791907586
C         7.03930492150064    0.76122398238388    3.11336877426274
C         6.93678089683735    1.82093890946312    2.21809245460292
C         6.22293668222430    2.94638518356651    2.58731579931392
C         6.05247317561040    5.33241616551120    5.53702450115940
C         6.04718973191797    4.98907195621831    6.91039781424714
C         7.06888501961331    5.57006005244988    7.69536285785217
C         8.00809836806267    6.40571579910726    7.14017460730014
C         7.98857144735140    6.71680649410691    5.78488234486990
C         6.99985553665186    6.17560738492367    4.98515760238155
H         3.00779919709066    0.97719433322264   10.10541055852869
H         1.66723504648705    1.82398331509337   11.98916132787475
H         0.55656736075057    4.02552054872316   11.85889278315959
H         0.78291779876128    5.38267188894857    9.78460500588397
H         0.65931283004782    1.30399541308680    4.02636086989562
H        -1.71649697718808    1.94967432430280    4.09814374740405
H        -2.45814827962820    3.86138533040707    5.47770865847468
H        -0.77702821783601    5.13904305010930    6.78902344704314
H         6.51887700186217   -0.02475562864695    5.03896192242304
H         7.59972340938146   -0.12029610161414    2.82854114678915
H         7.40852008504149    1.76674497165606    1.24752584415096
H         6.12460984865367    3.79127269809392    1.91736167897050
H         7.08656075791770    5.32846047391475    8.74791221320592
H         8.77878998311804    6.82850971725568    7.77203374791198
H         8.73498093998650    7.37359549659545    5.36186618380033
H         6.95460358670634    6.39888881714193    3.92717927008637

