27
CSD_code = DIWWEO | q = 1 | S = 0 | Stoichiometry = C6H18AuN2(1+) | MND = 2
Au        1.13717374460111    4.79653238098520   11.10418422507711
N         1.70924667624054    5.86327064398027    9.37569344127514
H         1.46376855094187    6.84319023203199    9.51029768555506
H         2.72329168884183    5.83343019752881    9.29049932977355
C         1.11179440107221    5.41470887125179    8.09468970258575
H         1.44150270189686    4.39145954958803    7.90738945705157
H         1.46987456712143    6.04764909404125    7.27781240814413
C        -0.40875449437758    5.46806351569589    8.14909189997262
H        -0.73075581805334    6.49281255741881    8.34584035773298
H        -0.75840501091115    4.83991280146141    8.97355836313169
C        -1.02395371673141    4.98444662973909    6.84134606824838
H        -0.69703614759838    5.60520187476068    6.01162039697232
H        -2.10719185974294    5.03204224405388    6.89628763174859
H        -0.73491382531689    3.95695019655143    6.63735614446901
N         0.57964791565770    3.72705725989720   12.83602357177596
H         0.45020028171308    2.75013284814474   12.57649004352748
H         1.35247314238017    3.74504056203696   13.49847901602473
C        -0.64993150275754    4.18288135217406   13.52837084708475
H        -0.47683133188749    5.19652462561849   13.89319694849048
H        -0.85166622394720    3.53679541816878   14.38728851969793
C        -1.84779078675453    4.16751448275230   12.58886577874573
H        -2.00569634362269    3.15345382675078   12.21576051531330
H        -1.63658850277850    4.81384070205355   11.73196044260296
C        -3.10848532006991    4.65132733591439   13.29542812538019
H        -3.34428652392225    4.00987907457542   14.14001951629370
H        -3.95098396201669    4.63687870014051   12.61099505594181
H        -2.97910229997821    5.66680302268421   13.65985450738288

