33
CSD_code = DIWXIT | q = 1 | S = 0 | Stoichiometry = C8H22AuN2(1+) | MND = 2
Au        3.08567784843185    3.47300162633998    6.29435235296233
N         1.91138230855370    3.81916475749251    8.04963501644857
H         2.37997261706585    3.29332333860507    8.78762770051409
C         0.54271328854440    3.26447170056193    7.97286698111595
H         0.02943338519177    3.72551590196078    7.12883675483796
H        -0.00145757710544    3.51675271285438    8.88920248548795
C         0.57309912745043    1.75658718167446    7.80335468453008
H         1.09769118368995    1.47961257896305    6.89051330802381
H        -0.44123359552532    1.37363797085296    7.74340407685831
H         1.06695628698662    1.27899120148207    8.64681110072259
C         1.92047973335885    5.23664761245822    8.47700299286943
H         2.94940310179134    5.49553940040062    8.73557471686381
H         1.30240792242501    5.35104414303802    9.37359562356400
C         1.41933292023333    6.17660394087592    7.39439686946077
H         1.98492888745356    6.03634221476280    6.47401854501742
H         1.54793575088295    7.20386084282841    7.72267889201603
H         0.36526471454032    6.01995255985199    7.18586454280257
N         4.30568202580612    3.17131475454983    4.56086155893166
H         3.83525088876332    3.69161006683527    3.81873795459384
C         5.65640250225698    3.75631332529230    4.69019814906618
H         6.20194906047479    3.62317765970935    3.74994154531797
H         6.18648233501860    3.20839613723850    5.47177069579290
C         5.59477236880712    5.23372052639509    5.03236858901492
H         5.06446510662466    5.78986034511277    4.26250421326716
H         6.60170380890979    5.63355543556782    5.10621886974434
H         5.09360329871856    5.39084577110700    5.98651338496692
C         4.37035983047501    1.76632268742047    4.10853091608347
H         4.85476412139844    1.18180319591298    4.89322056197956
H         4.98691696094483    1.70280345970520    3.20553200861547
C         2.98855384288252    1.21255094299947    3.81372653723655
H         2.35926245748526    1.24834953928464    4.70147785605980
H         3.06962141362503    0.17790480072249    3.49420514962368
H         2.50382207383993    1.77662166714359    3.02005536561017

