87
CSD_code = DIWYOZ | q = 1 | S = 0 | Stoichiometry = C38H44AgN4(1+) | MND = 2
Ag        3.09147926351615    0.61935698536433   10.60002123147158
N         4.80798006956185    3.34522375196541   10.74575476060667
N         4.97775851641666    2.29694979917130    8.88966178362794
C         4.38137966709440    2.23601683535962   10.09667283458290
C         5.66775076091517    4.09197169695446    9.94138078221181
C         6.21878219521264    5.29275456747084   10.44461030550206
H         6.88181706282034    5.86107961040789    9.81351655815440
C         5.89350362627169    5.68813804851371   11.70260367986496
H         6.29588240456024    6.59864330178601   12.11509991292579
C         5.01272011014786    4.90144177332148   12.49589275613764
H         4.76235625565967    5.22551247490297   13.49203872367571
C         4.48967377490940    3.75350572911557   12.00926818335530
H         3.81541600967127    3.10999048618948   12.55916349720271
C         5.76146335978670    3.40103964294042    8.75763796159367
H         6.31246245174737    3.61554442322959    7.86631272720535
C         4.78422074225910    1.31030619859217    7.87979525546246
C         3.75227463305482    1.48451950624458    6.95246561628608
C         2.80753986725136    2.66029021695411    7.03211364285584
H         3.19348237008908    3.38690113915410    7.75414103339696
C         2.66562191801293    3.37552650265670    5.68821509915630
H         2.17532806166867    2.74496738618962    4.95234587354071
H         3.64175659195859    3.65988813290345    5.30214264281492
H         2.06888173004317    4.27584183160347    5.81171627028859
C         1.44832217854513    2.16918016924348    7.53880491873791
H         0.77311907917147    3.00827643089026    7.68433036771674
H         1.56966738826692    1.64569739427007    8.49528650330421
H         0.99940445781105    1.48051572616516    6.82784927699250
C         3.57999873555074    0.51079169624345    5.97725678867149
H         2.78867507172690    0.61626830174228    5.25273803953248
C         4.40926676483704   -0.59304383889729    5.92309802579474
H         4.26317109357733   -1.33794250934304    5.15591825454283
C         5.42156568480595   -0.74925739728421    6.85024702885993
H         6.05659910710885   -1.61916591462426    6.80129386302839
C         5.63149992074938    0.19890309993605    7.84344194289415
C         6.71412189777469   -0.00668678893532    8.87633730343412
H         6.81248944533531    0.89929142016107    9.48289354929568
C         8.07308146881875   -0.28251911132957    8.23205615351975
H         8.07519452873759   -1.22959821551019    7.70048390942693
H         8.84256560480032   -0.32400204693971    8.99891522149941
H         8.32960834859314    0.50683236918378    7.52931694170036
C         6.30501352935662   -1.15297827907945    9.80560100717350
H         5.32309533535417   -0.94504203121244   10.24969171633564
H         7.03128962305091   -1.26871055605967   10.60575889658953
H         6.23994791049272   -2.08885243014661    9.25692463955933
N         1.37497056108552   -2.10650682222895   10.45429212469273
N         1.20519943335621   -1.05822870122645   12.31038335355866
C         1.80157691708545   -0.99730068376498   11.10337138466013
C         0.51519810565676   -2.85324974204245   11.25866889814882
C        -0.03583886567672   -4.05403136485908   10.75544240936481
H        -0.69887587434557   -4.62235213527369   11.38653774099553
C         0.28943648007209   -4.44941865716304    9.49744938545137
H        -0.11294706664660   -5.35992273640341    9.08495522612912
C         1.17022148361824   -3.66272714480725    8.70415723994972
H         1.42058313179204   -3.98680109997768    7.70801176922674
C         1.69327322205248   -2.51479236277032    9.19077895784695
H         2.36753334246077   -1.87128115944970    8.64088187117148
C         0.42149007217421   -2.16231496322495   12.44241052083017
H        -0.12950857925903   -2.37681552993877   13.33373703336733
C         1.39874363556613   -0.07158352257278   13.32024713238977
C         2.43069160515432   -0.24579853801598   14.24757440881210
C         3.37542150228261   -1.42157320278621   14.16792699412583
H         2.98947484206982   -2.14818405273782   13.44590174107903
C         3.51733930424013   -2.13680744968155   15.51182662192103
H         4.00763383020489   -1.50624757623386   16.24769475709499
H         2.54120456281913   -2.42116780672893   15.89789984674254
H         4.11407879790403   -3.03712341402583   15.38832670465530
C         4.73464017667256   -0.93046932422339   13.66123232624390
H         5.40983923843939   -1.76956857598651   13.51570533317551
H         4.61329476498885   -0.40698627943318   12.70475092978830
H         5.18356268047056   -0.24180662710727   14.37218664445711
C         2.60297428228799    0.72793131371421   15.22278002079205
H         3.39429978966177    0.62245362548035   15.94729660310655
C         1.77371092621755    1.83177038568631   15.27693817175013
H         1.91981224135458    2.57667087972653   16.04411510802175
C         0.76141004010482    1.98798556334843   14.34979157658022
H         0.12638033230703    2.85789684490933   14.39874401216427
C         0.55146924387085    1.03982326956150   13.35659973194232
C        -0.53115489559562    1.24541499680675   12.32370703148313
H        -0.62952712079859    0.33943610671273   11.71715257418839
C        -1.89011167450422    1.52125296459838   12.96799173668264
H        -1.89222071680827    2.46833426583010   13.49956010911601
H        -2.65959821475935    1.56273460321506   12.20113502332030
H        -2.14663814629936    0.73190494270181   13.67073500546315
C        -0.12204513166539    2.39170351073404   11.39444026980510
H         0.85987057813960    2.18376277408413   10.95034605616352
H        -0.84832374071030    2.50743776398585   10.59428498781521
H        -0.05697371413090    3.32757813210295   11.94311514519667

