26
CSD_code = DIWYIU | q = 0 | S = 0 | Stoichiometry = C6H15AuCl3N | MND = 4
Au        1.16162325285929    3.97296137522070    2.41751974213820
Cl       -0.40470831410993    5.57312997804399    2.51033146916102
Cl        0.48911227870742    3.09113046194056    4.42258004228745
Cl        1.96341785865058    4.91466139259314    0.50331131925484
N         2.60372185118360    2.38343081989433    2.43133800194483
H         2.44347802791807    2.04739393095055    3.38646994731283
C         3.99704361828403    2.87764168944310    2.36880936254181
H         4.14150225565628    3.31393244770975    1.37690726943290
C         5.00331692493827    1.75294502543495    2.60803854358113
H         4.79535018463468    1.25027418066942    3.55084065198361
H         6.00305782697501    2.17450962413973    2.66164267864439
H         4.99628633119536    1.02045802624500    1.80615328141431
C         4.18450486711249    3.96174701183313    3.42355542353600
H         3.54531085679982    4.81970905861721    3.22180607551908
H         5.21449493415038    4.30791334093970    3.41939267670593
H         3.95011991877829    3.57997575542478    4.41560511376869
C         2.26711329960570    1.24957198032857    1.53386802713009
H         2.87285898417225    0.39003179819345    1.84966501971519
C         2.56296990681105    1.56178698606521    0.07394755641600
H         2.09573121895851    2.49712372100214   -0.21900991918530
H         2.16458712583712    0.76563362308600   -0.54902536304497
H         3.62989709941580    1.63534051060666   -0.11627883616709
C         0.80079324464219    0.87956541996913    1.72247273761163
H         0.56021925798679    0.74940929867744    2.77504979086400
H         0.58601478401301   -0.05002312270806    1.20168279478420
H         0.15418240482397    1.65514566567918    1.31362659264923

