33
CSD_code = DIWZUH | q = 1 | S = 0 | Stoichiometry = C8H22AuN2(1+) | MND = 2
Au        2.53357614738907    4.53804745348137    3.70519860218814
N         1.23754698060991    3.12185109331885    4.59104086787782
H         1.35238211757768    3.17635039348777    5.60235341996284
H         1.55067138428977    2.18977670979691    4.32218795841381
N         3.84361631403279    5.94596019370920    2.82659589912789
H         4.73644547959161    5.89238275802226    3.31536041145502
H         3.48095407851052    6.88180492268924    3.00464515815427
C        -0.22381985070011    3.22117122953043    4.28978123034620
C        -0.40405808904047    3.10171822967490    2.78154827202475
H        -0.00685635256141    2.15760417369959    2.41573835708565
H         0.10242652363142    3.91692480535946    2.26859819161339
H        -1.45860634163324    3.14480695891274    2.52791228034552
C        -0.94885479401692    2.08387748272189    5.00696978422917
H        -0.59421728436324    1.11550653028508    4.66000570724115
H        -2.01543865264656    2.13842501664086    4.81225599406196
H        -0.80158516283716    2.14481167863426    6.08323887520971
C        -0.71623451532092    4.57205985648591    4.79350318493115
H        -1.77362653785061    4.68755687546857    4.57713807341318
H        -0.17752784144656    5.38320014489514    4.30709380485232
H        -0.57999045169619    4.65895149461288    5.86898855628358
C         4.11543722636849    5.82861922968620    1.36078086928215
C         2.79290481005388    5.99172718143991    0.62203637013497
H         2.09041355409272    5.21440273356303    0.91618531338930
H         2.95273500208748    5.91675670918556   -0.44897411701162
H         2.34797422287537    6.96214092839254    0.83009545006122
C         5.09472860109214    6.92865465133592    0.95540076861057
H         4.67990702546001    7.91409834938590    1.15703328553170
H         5.30759179195419    6.86690753832657   -0.10732819805922
H         6.03619425064845    6.82938572500717    1.49165387869978
C         4.71931506332266    4.45385505895821    1.10275514455732
H         5.64950860756160    4.32878939786790    1.65216694038197
H         4.93330275849774    4.33348630530985    0.04540053543194
H         4.02858393446683    3.66798819011443    1.40283913017264

