87
CSD_code = DIWZAM | q = 1 | S = 0 | Stoichiometry = C38H44AuN4(1+) | MND = 2
Au        1.50540326860699    0.35035093607347    5.31867736517231
N         3.34540723747359    1.94615446435282    3.60955028698525
N         3.11097666961962    2.96035649021196    5.48107230370468
C         2.72412188600904    1.86074789433523    4.79807743053762
C         4.11405934264758    3.06409951504495    3.51674571095546
H         4.68390173627070    3.30310034086323    2.64402338374914
C         3.97930463745133    3.73335600595985    4.70961027569803
C         4.49985241794589    4.93335597545544    5.24486921916471
H         5.16945461683835    5.52103781569316    4.63900109789984
C         4.13836468702077    5.30345528527346    6.50084866349717
H         4.51744410805825    6.21271657178495    6.93742795273109
C         3.25049707753908    4.49132358614407    7.25888877667035
H         2.97084243546307    4.79518727187282    8.25358510534659
C         2.75501453448717    3.34325481920037    6.74346355645132
H         2.07851086766819    2.68451468774284    7.26725209642007
C         3.18129340879945    0.96467406495674    2.59083000365503
C         2.15998610217049    1.13243189839835    1.65304059006555
C         1.99168239318636    0.14422357378795    0.69183062039861
H         1.21044353935655    0.24489802231087   -0.04438338683674
C         2.81257854173496   -0.96698051060007    0.66634260494376
H         2.66893695841377   -1.72399568209526   -0.08935935127955
C         3.81823575967457   -1.11181214988504    1.60278110036792
H         4.45280397448210   -1.98298663166286    1.57073825939405
C         4.02237581457395   -0.15007674084650    2.58386956548965
C         5.11811222912540   -0.32966113376352    3.60783967431744
H         5.13390211070106    0.53518307892646    4.27894767514001
C         4.85062262310085   -1.57361791098837    4.45906229840053
H         3.87661021113097   -1.50048809380442    4.94241465193552
H         5.61253705529199   -1.66774306582200    5.22871300560428
H         4.86671464409106   -2.47288765083007    3.84961329427380
C         6.48563880657558   -0.41691276440685    2.92693233474371
H         6.55241117893834   -1.29766984347639    2.29475745904339
H         7.27054850997039   -0.47504766313162    3.67678950414146
H         6.66240430696638    0.46144506060050    2.31009046268080
C         1.24106996338668    2.33094386879808    1.68118929981987
H         1.56869219199058    3.02262425245736    2.46399873642344
C        -0.18556583031230    1.88841370890500    2.01748191143629
H        -0.57666907167105    1.22623186635439    1.24988387968557
H        -0.83727877969578    2.75555859219245    2.08764236439685
H        -0.20485213321019    1.36145445063650    2.97115952235294
C         1.28086988045036    3.08411296311980    0.35012450507954
H         2.30166402986719    3.36381583849053    0.09936160927587
H         0.68277167888034    3.98925416745288    0.41871239413332
H         0.88452065858512    2.47582233584475   -0.45765234786659
N        -0.33455843836355   -1.24539523927077    7.02794364045635
N        -0.10025275501402   -2.25957988460443    5.15639714725768
C         0.28669537967764   -1.16000963608338    5.83939654822611
C        -1.10328464427113   -2.36329045282630    7.12074987495647
H        -1.67314529378199   -2.60225599602501    7.99347032438451
C        -0.96860438953522   -3.03253857374233    5.92787159147344
C        -1.48915262601213   -4.23255542567160    5.39265114633201
H        -2.15876432186207   -4.82021162348343    5.99853444457519
C        -1.12763164372108   -4.60271661005777    4.13669874189973
H        -1.50665986370394   -5.51202405979125    3.70016967675521
C        -0.23980145660338   -3.79058252508723    3.37861559268701
H         0.03983491514065   -4.09446681347107    2.38391996036699
C         0.25565856734172   -2.64248351400613    3.89399326759212
H         0.93211405990843   -1.98372530059282    3.37016353111328
C        -0.17039446961778   -0.26391692005770    8.04665697708293
C         0.85085967374400   -0.43174151998452    8.98449120490470
C         1.01919188025554    0.55646350531184    9.94570002096526
H         1.80037944868145    0.45573165816268   10.68195987291502
C         0.19837936872846    1.66772935698654    9.97114202723559
H         0.34203585847115    2.42473286527497   10.72685270657707
C        -0.80722905788543    1.81262511885451    9.03466078991052
H        -1.44174092705361    2.68384181993291    9.06667469702504
C        -1.01139982508179    0.85089431224198    8.05357529800511
C        -2.10715056242272    1.03049961587043    7.02962317966624
H        -2.12293200288537    0.16568465174736    6.35847955857617
C        -1.83976131014552    2.27450191301297    6.17843943819709
H        -0.86577045154137    2.20144393649156    5.69503659799253
H        -2.60171785255175    2.36861642348187    5.40882897076449
H        -1.85587410306975    3.17374819761057    6.78792081586282
C        -3.47465482951310    1.11766235895784    7.71058533204010
H        -3.54144022026993    1.99839720129780    8.34278902840537
H        -4.25960052385481    1.17577696285529    6.96076518359234
H        -3.65134425599987    0.23927860114123    8.32741147187828
C         1.76968493888083   -1.63032404956541    8.95640218698049
H         1.44207382176203   -2.32196770340852    8.17355633985978
C         3.19638574196323   -1.18790558905770    8.62024316206875
H         3.58747010169886   -0.52576009162152    9.38788197638196
H         3.84803411239793   -2.05510339838173    8.55014159797806
H         3.21580902714487   -0.66094213212769    7.66657313605604
C         1.72972512375443   -2.38350074562024   10.28745701811477
H         0.70889908055170   -2.66315919559770   10.53813426331357
H         2.32779219957454   -3.28866644970200   10.21892990634880
H         2.12602624548422   -1.77522461141747   11.09526628710961

