59
CSD_code = DIXBUH | q = 0 | S = 0 | Stoichiometry = C18H28BBrIMoN7O2 | MND = 6
I         4.88501073303837    3.12393026774108    5.53755354849399
Mo        3.61672471540663    1.96671688735308    3.38492556127462
Br        0.97998774139032   -0.76459917507840    8.30875037443676
O         5.20700458277294   -0.49730541209949    3.41876082716579
O         2.21569067787326    1.33486003232589    4.42324748858417
N         4.56296322017363    0.51506708205512    3.43920792229047
N         2.38531466075444    3.77663312001022    3.19766729196737
N         2.34450239139900    4.42322835800761    2.01186049049227
N         5.01437465530330    2.93120324645218    2.05593714365435
N         4.55662088397038    3.75209922472571    1.08043675645323
N         2.72717416932661    1.48959577498703    1.51854731872342
N         2.54129848350275    2.42390694921954    0.56820624570694
C         1.40079499440438    4.11180153060634    5.47764177317183
C         1.63260369331157    4.46902592774153    4.05368001323872
C         1.10385766347379    5.58791739682839    3.40253719973187
C         1.57772371336550    5.52771735025527    2.10833229360677
C         1.33060882765508    6.47286918191283    0.98904550682229
C         7.25800907464073    2.21710889800032    2.91772293605449
C         6.35415711176922    2.97274936165548    2.01486085771985
C         6.75272065331569    3.84286799917301    0.99952597471846
C         5.58704515416821    4.31535192250624    0.42555748189774
C         5.43790680299847    5.26906866781148   -0.70313057919387
C         2.22074034351786   -0.91483613992877    1.86146614409399
C         2.20845253966759    0.34266142181672    1.07299361239187
C         1.67559034366147    0.55161174377500   -0.19757236200216
C         1.91130020910340    1.88602498170528   -0.48844502312323
C         1.55848322891165    2.63796282953887   -1.71926134673875
C         2.12133337380081    0.30486711402633    5.32732939048025
C         0.67115873171053   -0.16996234567631    5.50903879601762
C         0.55850558703890   -1.32365638996745    6.48450605624203
B         3.05595804913094    3.85972697478119    0.78396163165551
H         2.85769520341450    4.52192702706423   -0.16878627914542
H         2.10669817418633    4.64001805539881    6.11958736249653
H         0.39396108864462    4.40799784781458    5.76643187327855
H         1.52124055783788    3.04321469794050    5.63726753088891
H         0.46562572845871    6.33522239581123    3.82733480859825
H         0.70368165947508    7.28799250256379    1.33988119494714
H         2.26739124160964    6.88476552451310    0.61805991585710
H         0.82826643682691    5.97423561395694    0.16161513794458
H         7.43446966526103    2.77911251485553    3.83599560163623
H         6.84052013269355    1.25080283376770    3.18758547957604
H         8.21525501735385    2.06534305911367    2.42436627298505
H         7.75693886588073    4.09076028433631    0.72368482474370
H         4.94038115293543    4.79535823693130   -1.54770147631347
H         4.84677045452884    6.13177331436827   -0.40203203801607
H         6.42016874544671    5.60829161188661   -1.01963481699497
H         3.23936144339186   -1.18982201219907    2.13182226882960
H         1.64538144032662   -0.78680068719526    2.77837387921255
H         1.78214910457208   -1.72114460187623    1.27893492866525
H         1.19001411053362   -0.17029585657876   -0.82169582648712
H         0.91307479145102    3.48194725906952   -1.48301689912986
H         2.45353151814132    3.02263043560680   -2.20469796494312
H         1.03938619193701    1.97922965262507   -2.40981408604810
H         2.76174671691957   -0.54328407826337    5.01352240712006
H         2.50241822309395    0.66880166108918    6.30125417330919
H         0.06178704809517    0.67342552874700    5.84609064358889
H         0.27750082571727   -0.49703723552614    4.54035096943551
H         1.25762666263838   -2.12339074051781    6.24146798755135
H        -0.45645921194319   -1.71718962758039    6.52136080038564

