25
CSD_code = DIXFUL | q = 0 | S = 0 | Stoichiometry = C13H7O4V | MND = 9
V         3.49171639446256    0.33966743015722    5.98312209801694
O         5.21217698482208    2.72685651466820    5.65901772431127
O         6.15277186811135   -0.42163612476675    4.93972931116100
O         2.68298748266227    2.01145786654432    3.67581364145527
O         3.55068891900788   -0.87587835071720    3.27782503066498
C         4.53211405079818    1.82499382296969    5.86701990446471
C         5.12107264706860   -0.16449592499152    5.38499628861605
C         2.97953837191969    1.33390110698647    4.56555045389051
C         3.51033551071041   -0.38682801383860    4.32953700572323
C         3.33659519304793   -1.02999070529360    7.67109176771574
C         3.35515399174750    0.30039418866441    8.12449758085475
C         2.17248302292391    0.93937392405156    7.63829648771107
C         1.62155263746739    2.21724260512635    7.85652576348522
C         0.42395656956626    2.52676759121891    7.26650258103753
C        -0.25528895508495    1.59974343862142    6.45335903848015
C         0.25113044202205    0.34777774120219    6.21995236698868
C         1.47757622414271   -0.00733106921431    6.81554021670721
C         2.24321638235287   -1.21205016622129    6.80472599602806
H         4.03344142582276   -1.80465370595116    7.97154472936776
H         4.01330967007797    0.69671752753504    8.88833920884967
H         2.12747901514075    2.92517294223036    8.50136625087114
H        -0.02108036866292    3.49711504451524    7.43039579974576
H        -1.20017710934608    1.88705633381444    6.01611681842226
H        -0.28888631938593   -0.37039886314451    5.61516215557958
H         1.91653594860421   -2.15967515416705    6.39377177985128

