76
CSD_code = DIXHIE | q = 0 | S = 0 | Stoichiometry = C31H35Cl2NO4P2Pd | MND = 4
Pd        2.29729323458170   15.25897147862313    8.01566980257091
Cl        4.04776684841471   16.11495041108761    9.21536581660904
Cl        0.71472008556292   15.87738388015529    9.55283080308983
P         3.88441816960002   14.50364065153145    6.67163391773601
P         0.53150903722550   14.62418153720536    6.83050228334494
O         5.87745625256335   12.59136790468513    5.47978121956322
O         3.48822385282490   16.97264646152556    5.72686321270245
O         1.02740832537206   12.37916216098996    8.09258025645122
O        -1.73441525787248   14.68435322416211    4.96933101217135
N         2.17981756701221   12.97203177845901    5.41280712391792
C         3.22159750221159   13.91990873552466    5.04351768394999
H         2.82674823904114   14.77298531921094    4.47573195529062
H         4.00373306951905   13.43653385515512    4.45754853082631
C         0.84630630709356   13.53076809854194    5.34653830511835
H         0.11126034927868   12.72283399864383    5.36968340267919
H         0.68607549203888   14.11612049745974    4.42581474127611
C         2.29538674208784   11.70460986210092    4.72436374768177
H         1.56975706107207   11.00362445578008    5.13586715756218
H         3.29212432003740   11.29915307264194    4.89249103066270
H         2.12597382159725   11.78731790714254    3.63938323961536
C         4.64053342065008   13.03582140269235    7.42007809025794
C         5.59101392904776   12.23841921498942    6.76632979084299
C         6.16724930593567   11.16898187084942    7.43915117825418
H         6.90287179309300   10.54362024158229    6.95707239190725
C         5.80867356614236   10.90216558586771    8.75194316074173
H         6.27709042159570   10.07546550958952    9.26539413398492
C         4.86855873001245   11.68129834674757    9.40074612399316
H         4.60039680192985   11.46911925251580   10.42407990270831
C         4.28226454218495   12.74234575733756    8.72987280130842
H         3.53905065780192   13.37382384432956    9.22724151175067
C         6.94020401294127   11.94662712163792    4.82057453020437
H         7.04576460646725   12.45392200401771    3.86264460228574
H         6.72402338968076   10.88703254707859    4.64600488818734
H         7.87556707322258   12.03904695672480    5.38058913237963
C         5.26510459201265   15.61734628074496    6.32794054357943
C         4.83898419264338   16.87908495133220    5.89104385070592
C         5.76214882491740   17.88929017399623    5.67664056649839
H         5.45716483645929   18.87287386986308    5.35554868090365
C         7.10577353213122   17.63770420704556    5.91346768820913
H         7.82451694538478   18.42699988183968    5.74977620592299
C         7.52683281932587   16.40539747445129    6.37721997386130
H         8.57273714138398   16.23356227650230    6.58220595416375
C         6.60337002278735   15.39783655048804    6.60263189475486
H         6.92186022837226   14.45022009916359    7.00755752139577
C         2.98149916421073   18.17922441238871    5.19571686995918
H         1.92015655236881   18.01318941202386    5.01740461858530
H         3.47651394896228   18.42722644430166    4.25069383810838
H         3.10611446138772   19.00385294009516    5.90355835692477
C        -0.76722188185675   13.77959804740973    7.75939538501770
C        -0.28084293596479   12.62266554456520    8.38028977399154
C        -1.10714342661888   11.86585768041062    9.19384534953838
H        -0.74917904573713   10.97546972855357    9.68725307650694
C        -2.41238897793011   12.28894913982831    9.40112166385967
H        -3.05872970359106   11.70495401846640   10.03962561218796
C        -2.88336124073839   13.45391289126783    8.82352978371511
H        -3.89367484995980   13.78118956796070    9.01729606120782
C        -2.05570242672154   14.21333679723697    8.01191502358447
H        -2.40713864846103   15.14215377979620    7.58981972183480
C         1.54927101011882   11.11796257194205    8.44465979326771
H         2.51735700174614   11.04236497617255    7.95381251506317
H         0.89449313024232   10.31308015816701    8.09323453005678
H         1.68295937265655   11.03061815968926    9.52715819795857
C        -0.30767766607017   16.08635506282858    6.16459709394231
C        -1.40685020390168   15.96430689501693    5.30348626832332
C        -2.06427202044871   17.10547196577730    4.86568579753664
H        -2.91674800390361   17.03723100568863    4.20754589409710
C        -1.63002661581339   18.35343682572545    5.28917722793074
H        -2.15632166616559   19.23344389289004    4.94986416583914
C        -0.54552370412906   18.47912912418371    6.13839746129761
H        -0.22471597161685   19.45546224594550    6.46732235185899
C         0.11732875983563   17.34191134287838    6.57388666131957
H         0.96238847445621   17.41031668439411    7.26476269063147
C        -2.92722314916085   14.45560364605540    4.25868114665701
H        -3.02762859431198   13.37369534611470    4.18870040519973
H        -2.88319517066767   14.88010769258496    3.24996163592092
H        -3.79313237758651   14.86417128763744    4.78814066646135

