76
CSD_code = DIXHOK | q = 0 | S = 0 | Stoichiometry = C31H35Cl2NNiO4P2 | MND = 4
Ni        8.72854102316018    3.26182809093897    7.96369097459812
Cl        7.24077131097767    2.84272086366886    9.40447506529427
Cl       10.32721609360474    2.29324269768915    8.93397436378144
P         7.05832281095867    4.02856832142785    6.88823549865452
P        10.22545017771884    3.96827595942807    6.64216187936402
O         7.47140545632790    6.52639982449574    7.69927146112222
O         4.64050410838608    3.97769848453860    5.22239561234103
O        12.28173401096716    5.95458350648196    5.62613615750546
O         9.96782000143886    1.64093567745799    5.39027738764918
N         8.62961160476819    5.59051567745998    5.25152326620746
C         7.31833840019978    4.98188729179917    5.29610322151931
H         7.15668584515698    4.29750981368165    4.44346924094037
H         6.55645562148584    5.76271400164733    5.25297383718499
C         9.67806457744046    4.62268962674493    4.99307911765031
H        10.53119201714858    5.10756156267541    4.51808728007459
H         9.33839292818392    3.79795338153110    4.34838831695141
C         8.67951121389952    6.72002505607816    4.34856219657292
H         9.66022426835824    7.18976954030504    4.41794344262235
H         7.92870025292747    7.45178632195664    4.64548084477156
H         8.49764695362103    6.43957539733441    3.29882723997900
C         5.77973447219345    4.97476534443944    7.74928652135132
C         6.20088296738634    6.26135092091969    8.10202494556385
C         5.35276364605848    7.10834801529821    8.79601186195113
H         5.65970418531176    8.10489169866436    9.07456560776086
C         4.09494674429151    6.64784457604253    9.15829291863431
H         3.43196728899775    7.30392420865458    9.70302626337107
C         3.69376558304871    5.35997785383138    8.85236996764706
H         2.72228875740435    5.00915526241648    9.16622581702179
C         4.54247281413396    4.51317982237536    8.15755984905551
H         4.25137932640234    3.49564650273087    7.94610673750377
C         7.98783842400315    7.81793941660402    7.89430646252758
H         8.96795481835700    7.82293534538341    7.42171337953727
H         8.09881714760996    8.04757875790712    8.95873137558767
H         7.34932806013667    8.57492328969193    7.42515506797017
C         6.18084249975528    2.56387705500404    6.26152043344696
C         5.02251182306357    2.69597164191167    5.48326954432701
C         4.36506219641389    1.55838001594975    5.03556414775236
H         3.46306202519376    1.63586377033125    4.44817529640540
C         4.86761122742061    0.30316158314017    5.34555449859131
H         4.34303138990989   -0.57324884587908    4.99435208817256
C         6.02263082837080    0.16717143007991    6.09359288372940
H         6.40580249084190   -0.81353043509283    6.33034876549394
C         6.67496386554321    1.30120774975604    6.54885912504447
H         7.57517637304318    1.21882845461746    7.15911788362871
C         3.38958257172420    4.20207332743132    4.62004580004291
H         3.25675492941057    5.28277390162750    4.60727692561561
H         2.57969050392306    3.74741488640729    5.19836395176943
H         3.36198508470158    3.82259300676966    3.59295484387606
C        10.89632058514244    5.44900855499738    7.45521664818509
C        11.86042290674630    6.28936170052119    6.88001499218293
C        12.32411942915437    7.38635485433840    7.59494712726653
H        13.06803642310084    8.04466874380295    7.17302356769257
C        11.84045879838041    7.64414196952367    8.86854691564181
H        12.22138781641938    8.49656472313866    9.41171884824058
C        10.88778102880731    6.82186683393831    9.44078358015680
H        10.52031159767272    7.02178574567751   10.43537089258784
C        10.41841439640670    5.73300279012579    8.72735347559119
H         9.66841223718878    5.07056731482279    9.16580877394022
C        13.37012833159815    6.64771967986710    5.06639495108318
H        13.58574774594987    6.14650372110253    4.12374450741847
H        14.25338008788866    6.59645680344005    5.71009154419309
H        13.12425930996539    7.69684198301888    4.86912151167843
C        11.66324628954022    2.94353069597389    6.24878302559736
C        11.30686443414300    1.74501110738150    5.61906914856184
C        12.27324271659795    0.80506876540465    5.30541597845445
H        12.01774290836422   -0.12713394233751    4.82600920308280
C        13.59469645717437    1.06342364481710    5.64122144366516
H        14.35049230858868    0.33038510234975    5.40068595065742
C        13.94607638268871    2.22770650818503    6.29845138671141
H        14.97431248004425    2.39967520689734    6.57887811919349
C        12.97657814085479    3.16501584840596    6.61817193434251
H        13.23865238869354    4.05380313458864    7.17035131434095
C         9.47985566322852    0.44901433839315    4.82045424584675
H         8.40298978869668    0.57775426527085    4.72028142828883
H         9.68281268064360   -0.40896479080220    5.46784679950096
H         9.92091594493902    0.27522504282328    3.83281331773529

