38
CSD_code = DIXJEC | q = 0 | S = 0 | Stoichiometry = C17H13BrMnN3O3 | MND = 6
Br        2.33752563333847    1.19070825001936    9.76274926651212
Mn        3.01492377479379   -0.25063585807766    7.93922816034260
O         0.78845057889111   -2.10358997551977    8.36895910932785
O         3.92528728796853   -2.04258636358785    5.82041330731964
O         1.34769626825490    1.18391858673060    6.00145438114551
N         4.34083222542303   -1.27446225124626    9.54326534657838
H         3.99822355012865   -0.70543950572019   10.32831285675561
N         6.83944656954712    1.26223686127318    8.65394768840487
H         7.70226903065423    1.13490181436523    9.15625705422573
N         4.79890556362224    0.85761256292420    7.89298536046904
C         5.19057695990682    2.09006220518057    7.42107291931937
C         6.48045064236339    4.43967114186496    6.79439557480141
H         6.95884897245449    5.37114424786639    6.53360163744191
C         4.52692700743504    3.01313546382049    6.62079799495546
H         3.52999729007700    2.81565334655739    6.26001163585043
C         3.48623541355250   -5.28485826225978   10.48315299134500
H         3.25107008756650   -6.31072691150642   10.72095673644612
C         4.20027934375943   -4.98439664456163    9.33547564215983
H         4.51977295786429   -5.77482128290128    8.67333955650787
C         3.36874958733207   -2.94881490165323   11.01330903771648
H         3.02657556417992   -2.15210592671701   11.66013695502424
C         1.65158488187191   -1.36161169050291    8.21498806823671
C         7.15396226364116    3.53568222662017    7.59057974195278
H         8.14754408373114    3.73497626016016    7.96093847619455
C         4.08729116014120   -2.64532105351738    9.86238018406079
C         3.60195903331823   -1.33085485916864    6.66708267040942
C         3.06515056405180   -4.26346559773890   11.31675877541407
H         2.49933512445454   -4.48698528560865   12.20825786759915
C         5.19173731289891    4.18257970647212    6.32038207288632
H         4.70544353443232    4.92338724533520    5.70489040900083
C         4.49972508337896   -3.67184763291020    9.02051906810732
H         5.02792709157450   -3.45087770408194    8.10413071219742
C         6.49009699848421    2.35928776658144    7.89777494338821
C         5.74427587248808   -0.92146852958046    9.30784492199665
H         6.20481369502132   -1.68011935535896    8.66257562404437
H         6.31738602484960   -0.88449330154933   10.24751146286747
C         5.79164473223664    0.40274193584622    8.61903179758744
C         2.03357823431787    0.65068327214929    6.75552999140823

