52
CSD_code = DIXLAA | q = 0 | S = 0 | Stoichiometry = C21H23BrMnNO3Se2 | MND = 6
Mn       -1.44400470205892    1.45992273450973    4.55517256117000
C        -2.03271924812944    1.51095463758913    2.86972731058547
C        -2.85037255368902    2.44038065489306    5.05007054000254
C        -0.46374265956889    2.90232071940979    4.26161822161028
Br       -2.43383724861172   -0.66352833549169    5.08781712651881
O        -2.38649381930280    1.58078351160934    1.78167354419460
O        -3.75675283246744    3.09859550035502    5.31659080210326
O         0.16647778213921    3.84281406761739    4.06077289447660
N        -0.57488393047025    1.39832717348940    6.70903575204957
H        -1.18089421170925    0.68045872230834    7.13075216011970
Se       -1.52653176637829    3.69954271312417   10.09512993913937
Se        0.30829572043871   -0.12341036553954    4.09244934113792
C        -0.73831015440766    2.61158296560484    7.52369586372140
H        -1.74668136517699    2.99329309701341    7.34285256276367
H        -0.03106688645792    3.37156425655223    7.17974245173309
C        -0.56366856310313    2.35981338028045    9.01893372369898
H         0.47722585192666    2.41835252048317    9.33843766550087
H        -0.97746648277769    1.38842068597924    9.30566568557224
C         0.80061287663385    0.88669983907928    6.75008192705732
H         1.11513594618273    0.68261238469573    7.78368817490380
H         1.46144686082774    1.66226046995825    6.34240859062813
C         0.92661321303369   -0.39453278029453    5.94175801815090
H         0.30224522387262   -1.19088027968436    6.36024444860207
H         1.96247582759733   -0.73732980311040    5.88747973967102
C        -3.38513252695667    3.09553896967161    9.67677359160126
H        -3.99163915082205    3.59719073237145   10.43209001763396
H        -3.64262265599652    3.48322580855599    8.68986347530742
C        -3.50474415238832    1.61526241037094    9.75306408664167
C        -3.45256697984532    0.97210889617672   10.98644696133705
H        -3.34291488150981    1.56539437269438   11.88366292338294
C        -3.53259089446672   -0.40539267532166   11.06351506318766
H        -3.49432650849799   -0.89153886552528   12.02731262061079
C        -3.65881249198088   -1.16028475388155    9.90764664072065
H        -3.71729614626932   -2.23652954261931    9.96707259199023
C        -3.71204543654770   -0.53241366738445    8.67484443880643
H        -3.80579561899245   -1.10784176679926    7.76610634717480
C        -3.63230872681602    0.84822164001818    8.59950149724224
H        -3.69080139172260    1.32962019550960    7.63230490845663
C         1.96864729657599    0.66027878561924    3.35304296171991
H         2.42830837187793    1.31146243266895    4.10019775093084
H         2.64413288939630   -0.17442947025778    3.13756479224187
C         1.60904556694856    1.41143844868295    2.11163728242707
C         2.03532074456802    2.71622294436749    1.90549784863999
H         2.65852244190136    3.20231345818517    2.64313579743620
C         1.66235722685603    3.39822635755685    0.76039362009761
H         1.99562022974643    4.41447982484427    0.61234635261143
C         0.85800499385785    2.78614560164429   -0.18494008251215
H         0.56062822862096    3.32411641346849   -1.07222458439684
C         0.42943741660365    1.48374345149435    0.01158883831518
H        -0.20254323755050    1.00250256298222   -0.71919840009222
C         0.80389838448809    0.80205199934845    1.15379986694114
H         0.47341413056617   -0.22153303486300    1.31315374642112

