46
CSD_code = DIXLII | q = 0 | S = 0 | Stoichiometry = C19H19BrMnNO3Se2 | MND = 6
Mn        3.28729007959890   14.01506666815810    7.41204388937761
C         3.74638068024148   12.64050206304584    8.45281643699760
C         4.97783644693345   14.58666236758529    7.46402183958164
C         3.56144829413944   13.04226765975799    5.96089258746098
Br        2.58247792672252   15.37586850273294    9.25314480205120
O         4.05122784371790   11.74146846184508    9.09739660468450
O         6.08347439539171   14.90224109818666    7.51242869873156
O         3.72833220735468   12.39103746432377    5.02736570527160
N         2.62743447068100   15.74383648484162    6.03355497548514
H         2.63281225720413   16.52492787864072    6.70986603339649
Se        0.88526522062763   13.53369910109910    7.48370969769450
Se        3.06843636852999   18.87705833884508    5.83707030919156
C         3.56355473533469   16.13103666983362    4.97094918062747
H         3.50721120910526   15.39435228619824    4.16230644454117
H         4.57532183061168   16.09962396514869    5.38815637379773
C         3.32177537223333   17.52881750378682    4.40163757996752
H         2.42284788935461   17.58666268727909    3.78559358441209
H         4.17202899236185   17.83160838885678    3.78990731879304
C         1.25043575798343   15.62684995662413    5.54063938374211
H         1.23483988405255   14.87398189950372    4.74154688530930
H         0.90058097150360   16.58383766465060    5.12629383012771
C         0.30810139139038   15.22394077331277    6.66280798427235
H        -0.71837850939629   15.09895395844208    6.31319828123863
H         0.31842870985333   15.95839748000087    7.47502339651224
C         4.65352115166038   18.46433764891924    6.87034432146975
C         4.52434515307891   18.23395668705368    8.23112423670579
H         3.55705074831233   18.29283522777460    8.70954129614586
C         5.64695127432330   17.91146259018599    8.97308440345027
H         5.54044463894008   17.71304771375554   10.02806589588299
C         6.88473032702443   17.82338103042508    8.35962627634345
H         7.75717855322908   17.55858642600267    8.93716802608721
C         7.00692684402520   18.07369020010060    7.00225600343706
H         7.97281228179487   18.01269112350816    6.52268529625248
C         5.89286430813830   18.40278547738737    6.25241220142898
H         5.98955469109105   18.60929300674619    5.19542603848446
C         0.41125098614082   12.25207094332642    6.12146275198255
C         1.00363826720968   11.00297775720370    6.27334016941870
H         1.67796619515874   10.83261185442711    7.10728297137470
C         0.74320536337986    9.99779632508162    5.36366446886303
H         1.21007573134792    9.03182786236295    5.48223175473506
C        -0.11059672997251   10.23618623629742    4.29780983175010
H        -0.30905760551774    9.45576341474143    3.57925253945864
C        -0.70967488052479   11.47542778997250    4.15578685039396
H        -1.37993873930855   11.66205293942718    3.32941983485424
C        -0.45800431808241   12.48645124578350    5.06836738489604
H        -0.94380866702676   13.44396717683284    4.94547562327235

