43
CSD_code = DIXSOV | q = 0 | S = 0 | Stoichiometry = C19H18ClI2NORu | MND = 9
I        12.08753141256093   10.17760435954126    8.96900744264922
Ru       10.74641875819049   10.66891818428311    6.72484328947156
I         6.24658815329286   10.78986611629464    9.37521823218780
Cl        6.97312980143228    5.17946699465572    8.40053492469362
O         8.95321485009599   10.63305160079818    7.78407550651755
N        10.32226467213030    8.69819047068392    6.68253496364668
C         9.72143602437341   12.07564928444102    5.30878063103372
C        11.85492730866878   12.63238896743156    6.37295130656363
H        12.43308132323021   13.25542546013785    7.04976726804659
C        12.53863530656967   11.63773949527319    5.60277318914782
C         8.75718197646207    7.01028610837545    7.48727554171292
C        10.48769955878179   12.85947121170554    6.22042046099877
H        10.00068946401957   13.65600029668910    6.77288506972647
C         9.19937707374261    8.35106972800385    7.35831221915539
C        11.05305050743168    7.74472365509593    6.13961708694701
H        11.96378126891893    8.04485163750919    5.63643584827110
C         8.49072355203197    9.44665751395261    7.93488739757776
C        11.78494780622250   10.88525829148857    4.68947173171852
H        12.27720182523733   10.18305507976493    4.02584727200087
C        10.70007866276628    6.39215531475386    6.22472748089982
H        11.34299081156439    5.65795561283320    5.76639042597718
C        10.38422830803414   11.09144972359549    4.55468074552072
H         9.83575483150017   10.53091887395215    3.80348899595256
C         7.30860769767038    9.14717301464275    8.61115792399506
C         9.56147198268044    6.01766204481382    6.88833192555539
H         9.27261257007126    4.98165096270855    6.96846827517774
C         7.56528183988749    6.79396002246852    8.20271513818835
C         6.85563732421305    7.84490030708476    8.74670808935632
H         5.94054673600476    7.65040503151541    9.28432040604370
C        14.67587193767759   12.38318111092118    4.61459746349108
H        14.39971952152842   12.01271911399171    3.62907890273475
H        15.75876192277800   12.35560965652464    4.70287338698756
H        14.34891432654368   13.41761128661199    4.69825146007526
C         8.25806142915376   12.34343505241289    5.15131378817035
H         7.80410629014834   11.66081507558629    4.43541868347497
H         8.09787299779821   13.36775668678442    4.81380326598025
H         7.75411654010015   12.22843573156042    6.11257000342708
C        14.04126578308367   11.52048118129801    5.71156089715765
H        14.34133651530589   11.92070734435184    6.68634594574930
C        14.53993402173709   10.07830508966097    5.63016429161191
H        14.03864199597516    9.46341478021372    6.37539531079473
H        15.60636077716337   10.05229266639263    5.83711625153599
H        14.37954453322785    9.65242985919645    4.64188156006960

