46
CSD_code = DIXTOW | q = 0 | S = 0 | Stoichiometry = C20H20Cl2INORu | MND = 9
I        15.13845098215194   10.16191315171941    6.80276273203982
Ru       12.63211192588346    9.96513938017042    7.64699601796862
Cl       10.75833954170540    9.52738610846257    2.98071480321123
Cl       10.59728436497425   14.88705997273836    3.29070542215647
O        11.93665978379593    9.74484694096782    5.71240041097685
N        12.37359564037734   11.92905405831199    7.11664618034159
C         8.41105103278452    8.30620061696001    8.73932538835145
H         8.36316362954323    8.78619986877603    9.71553121408366
H         8.75428025570220    7.28246061779717    8.87518190784101
H         7.40954520818863    8.28130835993836    8.31752239598868
C         9.35347469014389    9.07773484262030    7.80791192313517
H         9.38068821527266    8.56697293873043    6.83839207519653
C         8.83836391043655   10.49837676042282    7.57498462542080
H         7.90942112771769   10.46185729710875    7.01138645650056
H         9.55804906099074   11.08071039874424    7.00019087551739
H         8.63993161110566   11.01107617015735    8.51421927012028
C        10.74554976106019    9.03770819780136    8.38974704234225
C        11.63671747527413    7.99501772196053    8.02145786577375
H        11.32281949565476    7.26783476821675    7.27932738276833
C        12.90255509940666    7.88616822054246    8.60286009404132
H        13.56299005087330    7.07398704698734    8.31583505083298
C        13.28773798951507    8.73415417100881    9.68742342526581
C        14.58985642672760    8.49914977037046   10.38646019206830
H        15.42122072060900    8.64503363530535    9.69449824722925
H        14.63974103807669    7.47289670593460   10.74941930048731
H        14.71519213917485    9.17947669032984   11.22573078493858
C        12.40759471386519    9.74384256222994   10.07754124354733
H        12.63988779776043   10.36043236728126   10.93872226246163
C        11.18754766016021    9.94836850932834    9.37386278412109
H        10.51506359448433   10.72440782282287    9.72438342603081
C        13.33158003078593   12.85012689924049    9.15775767176705
H        12.58418767663510   12.83626620243828    9.95171009063046
H        14.00268083764782   13.68554285874542    9.33984470186140
H        13.91069201693981   11.92540517534521    9.19330351198635
C        12.67649126672960   13.00559786107883    7.82212491338582
C        12.40712618958607   14.29667821794962    7.32838503662334
H        12.66361244708202   15.14373982172843    7.94483126390440
C        11.83853852147226   14.47355071556335    6.09924834742205
H        11.62289958942934   15.45830532991231    5.71618757834909
C        11.54702643635592   13.34250535059768    5.30910104432399
C        10.99148010825463   13.36843532621401    4.01770594212668
C        10.75791093927348   12.20456251368593    3.31949549517377
H        10.33072023683795   12.24204139219250    2.32995702436792
C        11.06899769832240   10.96877209820270    3.87247839715216
C        11.63108763007396   10.85839152960382    5.15258640398698
C        11.84988343111510   12.07600303367234    5.86834177620110

