44
CSD_code = DIXWUF | q = 0 | S = 0 | Stoichiometry = C19H20INO2Ru | MND = 9
I         5.65670221854888    1.69171857468616    9.82562950334231
Ru        4.58439409300478    3.83443281405078    8.66049505393653
O         3.80313546122839    2.62959590691374    7.13772427018016
O         3.22177463972075    4.31198077498879   11.41098512352647
H         3.04815561928910    4.22014979822666   12.35592398741868
N         2.82434821281639    3.22233127897209    9.47642781525142
C         2.42047584852533    3.47615555633544   10.70204067753620
C         1.24012917669566    2.92433990368085   11.23131731871412
H         0.96172955245406    3.16140827693918   12.24778902985162
C         0.47375812867489    2.09804500316729   10.45582363395910
H        -0.43688433381007    1.66792195661963   10.84399654682292
C         0.88827061202082    1.78460128364899    9.14208595707586
C         0.21865092940281    0.92430340246566    8.25875930219242
H        -0.70713943329620    0.46572713985498    8.56850273949874
C         0.76102394249818    0.66044583957088    7.02043791837155
H         0.24124749273925   -0.00875225453546    6.35009901441087
C         1.96626647465059    1.21066373654749    6.59842686373099
H         2.37699025742145    0.96611794383811    5.63183327804163
C         2.67399019937707    2.07764972409077    7.43342870602803
C         2.09880876783797    2.37205449576245    8.70695340290632
C         2.87707427563784    6.78536761516122    9.17302852829095
H         2.03745577464056    6.50109733679097    8.54048517034570
H         3.04251818532495    7.85842792685711    9.05720190414532
H         2.61816917585075    6.59244494639083   10.21198633813734
C         5.15977851806243    5.83694517713286    9.73310551384377
H         5.04155866719820    6.20258743237404   10.74613900903210
C         4.12152391605826    6.04324617517887    8.78450095784538
C         4.34790782822910    5.67798864871919    7.43961909088237
H         3.61034903790697    5.92441675198642    6.68316795346860
C         5.56433302378255    5.06460707406162    7.05729755351260
H         5.72612309996120    4.83008509940405    6.01195441329447
C         6.55768706159453    4.77308903282927    8.00416725143786
C         6.33219392883591    5.17795347461677    9.35483222105359
H         7.11943521130370    5.02045832509219   10.08740402066482
C         7.87813066366135    4.14542857473160    7.62073611888654
H         8.29682771096209    3.67059339919048    8.51585698509568
C         8.84020853538900    5.24644256097107    7.16048016788132
H         8.44896088683232    5.75051145153351    6.27820068153360
H         9.80573607573680    4.81406354826021    6.91094508544019
H         8.98544044604398    5.98738432813317    7.94478083324496
C         7.72141535173204    3.06850800821142    6.54667092137532
H         6.90332806898783    2.39561297287257    6.79980599085587
H         8.63492754305041    2.48381142230502    6.47627151230423
H         7.52398915339719    3.50633756135724    5.57038163462929

