46
CSD_code = DIXWOZ | q = 0 | S = 0 | Stoichiometry = C20H22INORu | MND = 9
I         4.73800854210466    1.91225117211973    3.93788081064248
Ru        2.43873475679622    0.61827307370631    4.29678741893432
O         3.45410982113549   -1.18462237500785    4.18861478067569
N         2.42963490017154    0.29894052072643    2.26185328530385
C         1.40535379707941    2.43344341959961    1.68284669257245
H         0.34125525327573    2.36202197878849    1.91036740338289
H         1.52802572185196    3.12751614461978    0.85545151456983
H         1.93052837736033    2.83345115308101    2.55190928138876
C         1.96674148310966    1.09595004775210    1.31353281802272
C         2.02472083277937    0.71846643795843   -0.04227785955501
H         1.61871190903929    1.39554494112748   -0.77799427311701
C         2.58637934119480   -0.46872297682554   -0.41637870391519
H         2.63052395111485   -0.76330301332730   -1.45411113149825
C         3.14292584676158   -1.31028252475012    0.57059537718941
C         3.79343017327251   -2.52540561816520    0.31243283478238
H         3.87860428521821   -2.86890391092597   -0.70653034384119
C         4.32947956819023   -3.25070150580990    1.35210813321281
H         4.83822466763506   -4.18075955789548    1.14413871354782
C         4.24270598459151   -2.82363348430869    2.67099694221101
H         4.67763074279646   -3.40135163722104    3.47124015069693
C         3.59521169248787   -1.62727131858561    2.98524221844218
C         3.03759312300045   -0.86536194842028    1.91082970060708
C         0.13258978785028   -2.05496895048480    3.51556035306360
H         1.17265387372044   -2.37500284218666    3.49093045093835
H        -0.01517055802201   -1.29046567826429    2.75379672401642
H        -0.49240406615305   -2.90958434412869    3.26619949360361
C        -0.22064347411577   -1.52918934362962    4.91148007799102
H        -1.28319589745969   -1.24537730272012    4.91115637375654
C        -0.02385831567832   -2.63781856950358    5.94293208937374
H        -0.69728655832971   -3.46265722141973    5.72115696513699
H        -0.24085905761282   -2.28223802732746    6.94861943244174
H         0.99460417410646   -3.01853821292383    5.90913396862091
C         0.22334054447223    0.93422608214149    4.56645792591947
H        -0.59939448049161    0.92283216667538    3.85576867283056
C         0.56720589728800   -0.27347260781644    5.22283371920720
C         1.59505143368266   -0.20437566690823    6.19165623148998
H         1.90324295995675   -1.09774515067992    6.72102216593841
C         2.20078953839459    1.01764386773743    6.52878498028064
H         2.94763623222800    1.04916993700427    7.31536097269374
C         1.74343720340368    2.23962949532354    5.96291746040940
C         0.74147929083150    2.18591329273232    4.98567894943735
H         0.32850848631625    3.10427504119501    4.58305119131144
C         2.29444094599506    3.54286708850963    6.45150600790451
H         3.36805265074704    3.59642791685249    6.26648036611960
H         2.13797236304844    3.63278793236884    7.52647199833931
H         1.81827225504903    4.38352207888519    5.95180766450817

