65
CSD_code = DIXXEP | q = 0 | S = 0 | Stoichiometry = C20H40ClCrN3 | MND = 4
Cr        4.83099092730297    3.78960791737595    1.27858747513924
Cl        5.30538369619381    5.56866129701098    2.67492735255804
N         5.84071740955940    2.46004575255827    2.15215446448003
N         3.89315083692994    2.56629677139992   -0.42342781067386
N         3.61749200402047    5.35347984877768    0.03300665327949
C         5.37166980159364    1.56908132413481    3.08106256385192
C         6.34413682896924    0.63024444902863    3.34543796494521
C         7.48385220156452    0.99054433079578    2.56194282890083
C         7.13644030368981    2.12138449320151    1.85542999018993
C         4.00542367605150    1.74796005415586    3.70642614979094
C         3.10501960308495    0.54090967858252    3.39227293141654
H         2.07733816007831    0.73747753465854    3.69405077676036
H         3.44553419735821   -0.34260956116678    3.92345262794468
H         3.11974146455247    0.30453093299933    2.33075795793506
C         4.15299700212639    1.87374400106105    5.23221176815210
H         4.82218767437569    2.69685441505273    5.46952485700028
H         4.56399026567042    0.96867252155103    5.66696805843231
H         3.18383076121279    2.06820087543303    5.68911227887186
C         3.33010934884179    3.04278523073805    3.22372322604581
H         3.76726668488523    3.89294803670738    3.74039844024921
H         2.26962020051494    3.01711511501940    3.47683240514742
H         3.39462873508624    3.18556694639490    2.12595363942781
C         6.34519022821634   -0.55332345459886    4.25788625425173
H         6.95297044243592   -0.35222237258083    5.14240267380771
H         6.77752969501764   -1.41554818870961    3.74940303339215
H         5.34666638202720   -0.82295408439479    4.58748718997213
C         8.74986700919872    0.19634826203716    2.59738714586957
H         9.56438868626089    0.68535251335120    2.07321749623876
H         8.59591010215352   -0.78618568203515    2.14451668783532
H         9.05949327052565    0.03843645325426    3.63064568066417
C         7.99172742076710    3.00040023006868    0.96734624553963
C         8.56208391325783    2.20734164540415   -0.22021668214350
H         9.08988244305674    1.32214612431773    0.11754356425735
H         9.25948974066490    2.82639307597833   -0.78329881414832
H         7.77302990550770    1.88137464940510   -0.89413684455169
C         9.15798012553681    3.56498878805675    1.79772918885682
H         8.76776971518827    4.07323679193846    2.67597293128900
H         9.73188516974972    4.27760869903334    1.20704300369720
H         9.82673000446945    2.77844495427462    2.13186609850908
C         7.20646925245862    4.20935024049512    0.42906091250436
H         6.17374586489557    3.94027195528789    0.12573044689139
H         7.70739133129462    4.60407404592787   -0.45610048065272
H         7.19241049861703    4.99865572075468    1.17489045651502
C         2.98933439794918    4.73865626497532   -1.13874708741892
H         2.94952735741209    5.43744092250262   -1.98679779161639
H         1.95929738479986    4.46726537482010   -0.89823246403828
C         3.76029932593260    3.48661206511816   -1.55350992404032
H         3.24893325003389    3.00377076725226   -2.40260531338968
H         4.76208224393847    3.77412767191825   -1.88296029096106
C         4.81745570978452    1.48922392553219   -0.76205519382047
H         4.41243008548107    0.84228956907333   -1.55241991458594
H         5.01344967154004    0.89073286177171    0.12590950196549
H         5.76096345315672    1.90448277179080   -1.10584709896053
C         2.59721805916172    1.95779493349636   -0.12756560260085
H         1.89216556332580    2.69713148596585    0.24332041905643
H         2.72790646840365    1.20129981199271    0.64080617814989
H         2.17011283697440    1.47763489785896   -1.01909340154298
C         4.56920510601277    6.37880881290764   -0.39318852358916
H         4.05828823146441    7.21296770709553   -0.89315358842132
H         5.29959440260340    5.95500534083238   -1.07946151054525
H         5.08873216840191    6.75421641554515    0.48619613728411
C         2.61485666801671    5.98902531096417    0.88468486540252
H         3.12286488299917    6.41152667213237    1.74952897969125
H         1.89620730632732    5.24896995975706    1.23479285094820
H         2.07794244131746    6.78732412394447    0.35501598460011

