33
CSD_code = DIXYAL | q = 1 | S = 0 | Stoichiometry = C13H10MnN6O3(1+) | MND = 6
Mn        0.35118919132512    1.09517220220905    8.20872862587848
N        -1.19328701944392    2.41655156615046    8.50748530945408
O        -0.94268182024480   -1.05613695567262    9.73120740689426
C        -0.45658171075042   -0.21635784383394    9.13307776797505
C         1.70315626701243   -0.02142577524308    7.81827356085607
O         2.56127800251442   -0.73954794688183    7.60071941291525
N        -1.65717022992690    3.15750481282589    7.48402777344843
H        -1.55408118839755    3.68781010117785    5.46735241912058
O         1.76703189514078    1.90605794122189   10.64975802496045
N         1.13659976992826    2.62715247099900    7.08723580237981
C         1.21337640507077    1.60858191070259    9.69872017806561
N         0.34370733016122    3.33882074055329    6.26475145168018
C        -1.91251203514258    2.75033667823453    9.56400471419069
H        -1.73836088583771    2.29530150120862   10.52127501162112
C        -2.85971666924255    3.72467175148606    9.22205816975943
H        -3.57757728063416    4.18400234115299    9.86837736863234
N        -0.66402512348090    0.65853352103819    6.47726024130477
N        -1.20233651936328    1.64809221370281    5.74060393086303
C        -2.66931875183224    3.96235926504607    7.88540848283825
H        -3.16686416672085    4.62727713843281    7.20926861915949
C         2.34980740661851    3.13538961537184    6.96575727710798
H         3.17696575080014    2.73882496586830    7.52457630245188
C         2.34580717474297    4.19527094487359    6.04920991492822
H         3.17954172367001    4.79469669923129    5.74991564540227
C         1.04792280486675    4.29887565285023    5.62006818207925
H         0.58710431190734    4.96744624814449    4.92186552876339
C        -0.94312425419083   -0.46823768732031    5.84685269270521
H        -0.62085861979501   -1.41662210704169    6.23473169842874
C        -1.67483682834666   -0.20716171641343    4.68070963160932
H        -2.03891911101554   -0.92086815063167    3.97211396768484
C        -1.82296844167464    1.15518368770104    4.64277887840374
H        -2.31177017178794    1.79208002286824    3.93406054742873
C        -1.05969720593020    3.01526418998757    6.17856546100904

