65
CSD_code = DIXZOA | q = 0 | S = 0 | Stoichiometry = C28H33ClNPPd | MND = 4
Pd        1.80219799176954    4.75781599013434   10.90684622230632
Cl        4.10716842510590    4.85538137615678   10.48999873968647
N         1.92212242451213    3.56488059896310   12.66222211432519
P         1.80974289123660    6.21788315156867    9.22076867794504
C        -0.14811290971763    4.60839179621049   11.34288138939155
C        -1.27986273773014    4.58755958930767   10.49696277910499
C        -1.17269287798799    4.57576965711714    9.08962365294238
H        -0.17968626991395    4.55751059559873    8.64952164811615
C        -2.28154378025388    4.55128492530451    8.29464079963828
H        -2.17957129584669    4.53571594099402    7.21803236379451
C        -3.57503103788412    4.53902337876378    8.85591764611936
C        -3.70346273065376    4.51773133741723   10.21884099229379
H        -4.68628291478912    4.48363815013799   10.67008187666389
C        -2.57885106158708    4.52038437758231   11.07034325950865
C        -2.70543560005366    4.43157227462435   12.46937474595922
H        -3.69880380879492    4.39498249218602   12.89549961201202
C        -1.60730907048929    4.35347222481642   13.28772078344763
C        -0.32404438728073    4.43284059319728   12.70278245843386
C        -4.76808277387535    4.52895824791484    7.94866490096362
H        -4.75367714876356    3.64261304874245    7.31467007391782
H        -4.75694231314581    5.40256562565393    7.29725113749499
H        -5.69314992601221    4.53250544936096    8.51982357576731
C        -1.77488070333702    4.18939082940032   14.77066769699252
H        -2.82704444831928    4.24528678743259   15.03932672763796
H        -1.23820071550143    4.96524920992902   15.31492010508756
H        -1.39293231262063    3.22146101429809   15.09733774802747
C         0.95442706424465    4.31295244848640   13.50737259505979
H         0.79932636995332    3.76138524438147   14.44881028895361
C         1.47069821262327    5.72504545595335   13.82450637776387
H         2.25656588603216    5.71529328352789   14.57699909365560
H         0.64607105590561    6.32889256284751   14.19920938806425
H         1.84978006866681    6.19867199220346   12.89899653354172
C         1.46517359718829    2.18980657368857   12.45972766151936
H         2.12383457674781    1.69048822410259   11.74593266200993
H         0.44728237576451    2.17798331408227   12.06750860427853
H         1.48428661752227    1.62945179408870   13.40570289929621
C         3.24873147206458    3.52131674791624   13.27595458476509
H         3.19177797923643    3.11606222014481   14.29599298085999
H         3.69697304288897    4.51461126371413   13.29810364746858
H         3.90156727763189    2.88460142591246   12.67797603682398
C         0.49369628037930    7.34069817168613    8.70706747202616
H        -0.51953559265457    7.03518251107059    8.51128197616147
C         0.92806647633745    8.61375473620956    8.68996014548087
C         2.35027089164180    8.75743713838670    9.01404370776982
C         2.96353039384912    7.59145171101761    9.28722352562948
H         4.00003732656660    7.46748549379036    9.55126629355905
C         0.08538839001748    9.80129279799113    8.36621312878712
H        -0.93438381238253    9.49647577413055    8.14603303951200
H         0.48829994940291   10.33199245731703    7.50401937657021
H         0.06995089693042   10.49479473400498    9.20636811759377
C         3.01505737404136   10.09259249258598    9.02103869628990
H         4.06552194503018    9.99273890884693    9.28096076312683
H         2.53551092754736   10.75174030074996    9.74408368106904
H         2.93877823868211   10.56225357452822    8.04065918649670
C         2.24802343786881    5.28365009853109    7.72065348681929
C         2.29959230232788    3.89574899297255    7.80900416318143
H         2.08563758096563    3.40855574975728    8.77037007378342
C         2.63716248356468    3.14831016519958    6.69560720049186
H         2.68421169922170    2.07110364465796    6.76115575570051
C         2.92051282917723    3.78291558265280    5.49662437903298
H         3.18869541366047    3.19886390074627    4.62843649454595
C         2.86551671469106    5.16490327751019    5.40854507921174
H         3.09014250754742    5.65555001790647    4.47250571898934
C         2.52847515308233    5.91892675375227    6.51802201275363
H         2.48531368798722    6.99774980028874    6.46174144374622

