88
CSD_code = DIXZIV | q = 1 | S = 0 | Stoichiometry = C29H49CuIN6P2(1+) | MND = 4
I         7.25376250001271    1.60440880331095   12.63631331557222
Cu        7.43850632267880    3.55922226707329   11.09147210299617
P         9.32386410660778    2.84779971741560    9.78843432357050
P        10.86348170822095    0.92668257633928   10.61281759882610
N         9.92002415948055    3.44995635901253    8.37177605468237
H        10.76817900172740    3.01884409793918    8.01894790518347
N         9.59161495026256    1.11324990387714    9.55700983956805
N        10.83976440727961    2.59563791149935   10.67414739943857
N        12.21621754308637    0.42653128503251    9.83009829823775
H        12.29971575888794    0.93652262392359    8.95800783054299
N         5.66588197013709    4.01269572673609   10.11796754149931
N         7.34511682790478    5.52505844501694   11.60638347649758
C         9.37675889990102    4.47470909257373    7.48377033588932
C         8.97133995614902    3.82422368660350    6.15691968716863
H         9.83010315095903    3.35459959542156    5.68168074044364
H         8.57357217574268    4.57194473566145    5.47686708916453
H         8.20718502483839    3.06735130979685    6.32089018137424
C         8.16420569059241    5.11558030026321    8.14369387047760
H         7.38717352095695    4.37150173353469    8.31228054556222
H         7.76092604459664    5.89963604583213    7.50804942586422
H         8.44225419941317    5.55426349892971    9.10125256169912
C        10.45839067741895    5.52911114197792    7.23166470058480
H        10.74112176715233    6.01522657132661    8.16203784667646
H        10.09066736040763    6.28601926552132    6.54483925580574
H        11.34355174529834    5.07346221317632    6.79271731591855
C         8.75013058443016    0.13084544690702    8.88003971642086
C         9.37141342397147   -0.17695914418846    7.51342673278199
H         9.43201983397814    0.72815399731715    6.91361152445740
H         8.76753335857111   -0.90648793574348    6.98113176334201
H        10.37323102409134   -0.58279134888855    7.63741521901317
C         8.66350733443205   -1.13779626092238    9.72078449361843
H         9.65668504668801   -1.56416993545791    9.84919965946363
H         8.03626239085999   -1.87331546783393    9.22426895550223
H         8.22973423225716   -0.91805039626419   10.69356398497343
C         7.36517529164857    0.74140223950188    8.70583638226172
H         6.91535805561358    0.89386972760171    9.68372275102307
H         6.72857702899164    0.08041241353253    8.12351248164520
H         7.44731383162293    1.69995097326717    8.19164537871123
C        11.45254545562348    3.50905623671840   11.63103655989171
C        11.40033098532950    4.90072859954896   11.00173878302188
H        11.79525633838746    5.64622057920226   11.68680919881221
H        10.36800404814439    5.15145621479425   10.75728555952253
H        11.98743011013745    4.92208599355705   10.08648167697173
C        10.70133703411690    3.49812535897965   12.96132110388128
H        10.82372814523998    2.54715550304715   13.47261157726073
H         9.63793186063601    3.64974097217275   12.78618315116040
H        11.07089292945160    4.28449141091572   13.61491480793714
C        12.90256100332850    3.07754916294677   11.83756865181146
H        12.93679515783065    2.07335955768197   12.25534099162473
H        13.39969304505548    3.75594708578273   12.52572153477607
H        13.44054353283810    3.08402173045328   10.89199602855617
C        13.20610283951035   -0.66382318268234    9.93841826790757
C        12.55061365457401   -2.01979071934569    9.67620184733036
H        11.83799942161699   -2.26860673047305   10.45824202012093
H        13.30978808918979   -2.79655442055917    9.65419852721360
H        12.03664287864776   -2.02028264270140    8.71763471586489
C        14.25755263666797   -0.38659093304456    8.86186472919066
H        13.81294322399919   -0.41055597499784    7.86873090452191
H        15.03624508998357   -1.14268922170694    8.89832258586400
H        14.72108529194441    0.58457752501762    9.02037014269580
C        13.87704739191391   -0.65532992201569   11.30969135352607
H        14.30190451172576    0.32262602305338   11.51927731536950
H        14.68309045867017   -1.38389748914212   11.31946669825859
H        13.17896360122944   -0.92088098121258   12.09675767804541
C        10.62272281643058    0.02942003272060   12.16312236189173
H        10.63937720151224   -1.04223478923280   11.99187653827724
H         9.65136166859273    0.31734598520858   12.57354841418764
H        11.40835709177631    0.30067006552492   12.86316800746138
C         4.82931081992099    3.23442410861084    9.46594068297384
H         5.18970687576670    2.25076913339023    9.20310962840512
C         3.53664450240448    3.62680392050615    9.11528316141327
H         2.89597073518853    2.94119386435139    8.58496506262903
C         3.10946821702640    4.88904421388618    9.45316288444240
H         2.12074808677161    5.23488292304165    9.19150128802952
C         3.97523298752984    5.73646588656557   10.16360612681242
C         3.60645485540340    7.04834938312528   10.57478419205843
H         2.62528284889283    7.40896838543732   10.30538147576218
C         4.45647792359291    7.81609943269757   11.29710515843718
H         4.17298270114923    8.80686383683000   11.61854851167828
C         5.74056369673997    7.33167978532506   11.67577719615091
C         6.62663474577379    8.07503451473188   12.47182592250886
H         6.34549906940179    9.06269801433405   12.80474210607479
C         7.83401362505854    7.51946808816631   12.82402476727023
H         8.53553306041164    8.05130167845172   13.44606580645527
C         8.14894949951064    6.24007653997177   12.36724511895566
H         9.09083347468770    5.78657976307898   12.63812182199263
C         6.14920996216447    6.04329895473605   11.26524734668181
C         5.25621389162157    5.23855332591505   10.48916172185967

