49
CSD_code = DIYCET | q = 0 | S = 0 | Stoichiometry = C21H25N2Rh | MND = 6
Rh        0.82508236635451    2.81053119205622    2.60470427205287
N         2.49895516177904    1.74681906340829    2.87454731696125
N         0.73529446909059    1.60708514138945    0.89349808178984
C        -0.41756776338858    4.32942680179666    1.81938916954033
C        -1.20271792549883    3.48122259811485    2.59391310028553
C        -1.71896587030116    3.85387649607143    3.96824862557761
C        -0.77239852467850    3.37590362742667    5.08553833126118
C         0.67411661443242    3.31662386222869    4.64973273341817
C         1.34128927016514    4.34345022255870    3.98686877762547
C         0.70289370534963    5.67852790299225    3.66861915481532
C         0.07056890945963    5.69050875721523    2.26395041678888
C         3.51988023080015    1.62273846766184    3.72455282167046
C         4.39455416174143    0.61892697439913    3.30247432760546
C         3.87319927179915    0.10205234585946    2.12843102801907
C         2.69349979802825    0.81823701150942    1.87824693524810
C        -0.25934343468131    1.48736147557705   -0.17002982451850
C         0.33993520127486    1.95397216798316   -1.49950604770112
C        -0.82770774197721    0.08046416639800   -0.18308623412500
C        -0.96236479908618   -0.68495469606440   -1.33178764604238
C        -1.49077352580555   -1.96427595094191   -1.26405916381807
C        -1.88947368537894   -2.49388541412642   -0.05071965543374
C        -1.75930348303351   -1.73607778477062    1.10189783574435
C        -1.23458437357273   -0.46045060630577    1.03436612601494
C         1.72551151647781    0.76548824336405    0.86526246659295
H        -0.47574214295193    4.23712055121640    0.73402413829770
H        -1.81867594285899    2.74416838819611    2.07802064030673
H        -2.69934051652467    3.39711208364891    4.11839408631508
H        -1.85749836511677    4.93437888166104    4.01945157214372
H        -0.86282605982069    4.02764406409649    5.96139859485310
H        -1.07046778404357    2.37205847625744    5.39831061140156
H         1.26761529730829    2.61439449411316    5.23545994343969
H         2.42796099971919    4.37174848306550    4.05896849346330
H         1.46352489970356    6.46003167332193    3.71734495930459
H        -0.04500377042114    5.90970041631192    4.42784964216817
H        -0.75920404773799    6.40535533344786    2.23009687876919
H         0.81850796986219    6.02979573252904    1.54278032099560
H         3.61599927319802    2.23454838964987    4.60503489339122
H         5.29516619136282    0.31641954100135    3.80188574621350
H         4.27800221697823   -0.68522410628678    1.52149690352120
H        -1.08679157936490    2.16560876408642    0.07508783094619
H         1.12214640563456    1.27782783165451   -1.83653979580911
H         0.78021794734525    2.94015156108005   -1.36162537088367
H        -0.42945185791566    2.02268861422988   -2.26446023953177
H        -0.65764746722862   -0.29463602033267   -2.29039616330982
H        -1.58751037966674   -2.54906470071150   -2.16748306926106
H        -2.29829640424234   -3.49230078687760   -0.00168540462341
H        -2.06693790881124   -2.14153616637947    2.05460921672184
H        -1.12225182037576    0.12905575575334    1.93599135774308
H         1.80652529662346    0.01418067946561    0.08023126405237

