32
CSD_code = DIYJAY | q = 0 | S = 0 | Stoichiometry = C15H9ClN3O3Re | MND = 6
Re        7.21395989514097    4.38319641638435    3.20976234209644
Cl        6.42947955577670    3.17160689371472    5.10235903066786
O         8.97101444379808    1.94094081161755    2.51065855929022
O         9.41072295199784    5.56667508493872    5.02900454401695
O         7.89709670133100    6.07452583238595    0.71450773585836
N         5.65890326805488    5.73496352890087    3.94483177592301
N         3.19604063673750    3.41700334293339    2.57551112731698
H         2.26041917967869    3.57390332369393    2.90946651321689
N         5.39774216737419    3.61262422320765    2.36553178856057
C         8.35715617734158    2.88344621356187    2.72158553517047
C         8.63676950800228    5.13664761638775    4.30356547607725
C         5.84134981884664    6.79594818850212    4.72039236757563
H         6.85548344119285    7.16589168216723    4.79586488123130
C         4.81221228781779    7.41269347679232    5.41161706593464
H         5.01990606800177    8.26449746473229    6.03845319717553
C         3.52490497179715    6.90880605426484    5.29025641387066
H         2.70136769804002    7.35826597522202    5.82349742443700
C         3.31793510696306    5.81438773065636    4.47288342938833
H         2.33159235867578    5.39297760293860    4.35462414122278
C         4.40854360019375    5.24707867976518    3.81645781180117
C         4.31491184347852    4.09945969007137    2.94417142617516
C         3.59384847013062    2.41935944169870    1.72073734789585
C         2.89707312409637    1.42489568971129    1.05158749491007
H         1.82816113624543    1.31874920133507    1.15493575757802
C         3.63619506888821    0.57775544707504    0.25184910441779
H         3.13325254960964   -0.21280785167017   -0.28385179582071
C         5.02189763963104    0.71398828965021    0.11598301049868
H         5.55150588163738    0.02410378189396   -0.52270569558677
C         5.72244137749412    1.69961709124961    0.77511208843692
H         6.79024733088467    1.81394141611593    0.67641314300716
C         4.99470537155455    2.56087398957673    1.59246621924038
C         7.66336036958713    5.43808367052322    1.64307073841726

