87
CSD_code = DIYLED | q = 1 | S = 0 | Stoichiometry = C43H34ClN6P2Ru(1+) | MND = 6
Ru        5.36055050111782    3.26092603275406    9.54735068598105
Cl        6.08991736408468    1.18161108790299   10.35567598154358
P         4.29783002095902    5.27210574279260    9.08020503889348
P         3.85150279964663    3.67689419198237   11.30175012025395
N         7.03326597460563    4.08329115120381   10.39466263609246
N         6.60906364930055    2.98007069825127    8.16004665864144
N         4.18766937537376    2.22349352236699    8.18901585992193
N         8.86100268951582    2.78790496001643    7.55868618283136
N         7.17918882625081    1.80983793173542    6.22136954754858
N         8.99098131150945    1.26400923893923    4.31957756222995
C         7.18647443214185    4.74280924376768   11.54089317652905
H         6.28201841467201    4.96236644468689   12.09511299766086
C         8.41751605749616    5.12978736160486   12.03612157552472
H         8.47091843312593    5.64940773043701   12.97899700611031
C         9.56869146867957    4.83059916748379   11.31566174559644
H        10.54254703415472    5.10618913528034   11.68740393639280
C         9.42847848912541    4.17677859513570   10.10803327279117
H        10.26962340636403    3.92243233783349    9.48375028351985
C         8.15481740606088    3.82055887149338    9.67383204374481
C         7.91744407232075    3.16729555909494    8.39664199429788
C         6.29484344153533    2.21046700379828    7.10636232477697
C         4.89177239145541    1.82781148216243    7.10002464005059
C         4.33211889958221    1.08977283471950    6.06232615274754
H         4.96868967802021    0.81003004485217    5.23806145968360
C         2.99847520588703    0.73783814334591    6.13684586630692
H         2.53313265096777    0.16102947067861    5.35355286814259
C         2.27754959404531    1.13736535769150    7.25500369112573
H         1.23761568160879    0.87770740072589    7.36936303265855
C         2.90703081617837    1.86953482026544    8.24586904417001
H         2.36296954561523    2.16867652180534    9.13140534071216
C         8.44879040052897    2.15554781686452    6.45183801934353
C         9.45036849873107    1.76887066270995    5.46329106443849
C        10.81201715799718    1.92216586593523    5.73097199387465
H        11.12761179362004    2.33467327148521    6.67517422512983
C        11.71966458365736    1.52214589940498    4.76513457379118
H        12.78141090249437    1.61990642902523    4.93671501980739
C        11.24058737806849    0.99239563459151    3.57740431816301
H        11.91364180472890    0.66706483532196    2.80018677856089
C         9.86263156067164    0.88911763487618    3.40932078945972
H         9.44031481987277    0.48613045378181    2.49853341452951
C         3.49302591731169    5.42817464421151   10.75010555834675
H         4.08049413378224    6.13125513997693   11.35214505400161
H         2.45010807628730    5.75028969542659   10.73209163505175
C         5.04317477446321    6.89463973097741    8.76615086247582
C         6.40636530558334    6.99037473598566    8.51355152359290
H         7.00874935773373    6.09010425677400    8.48886368980078
C         6.97960905536301    8.22940549910981    8.28667124207275
H         8.03797306083474    8.30618849022069    8.08830278922236
C         6.19180973795852    9.36851102212367    8.31148658700859
H         6.63870771210304   10.33456347983955    8.13423505567921
C         4.82967075918497    9.27361769999463    8.55827220114161
H         4.22032847153539   10.16439617258913    8.57057626683854
C         4.25086421852560    8.03983030570750    8.78507269685938
H         3.18859672973168    7.95262199755714    8.96859413826682
C         2.95108080592842    5.18190965467964    7.87130251822510
C         3.27933507589392    5.45302108768287    6.54332357879883
H         4.27782600312748    5.79774990230722    6.30418570494073
C         2.33471836968658    5.29162838939046    5.54852818267477
H         2.58958572929384    5.51054762864934    4.52289634049702
C         1.06085247638193    4.84762411619577    5.86945392336588
H         0.32231079996187    4.72367217153254    5.09267701696248
C         0.73578502706777    4.56212489764399    7.18508884329653
H        -0.25555009323529    4.21428931413748    7.43384275047276
C         1.67775185208590    4.71894919171010    8.18676832893259
H         1.41648175309261    4.48172738717750    9.20881217408793
C         2.26441094855739    2.82180595410672   11.54122905371790
C         1.05495630693719    3.44592576401717   11.82105720250360
H         0.98180213037008    4.52377571067472   11.85846451077012
C        -0.06889947251585    2.67526231148189   12.06557058144651
H        -1.01081586402195    3.15756239339026   12.27965657785762
C         0.01292855260243    1.29225032074240   12.04657464099443
H        -0.86772188229011    0.70030168103217   12.24300574758677
C         1.22311156215725    0.66784491354988   11.78438635580583
H         1.28814199841048   -0.40938968206558   11.77888222940374
C         2.34816081425352    1.42941836331183   11.53188701449749
H         3.30348409233704    0.96346944930437   11.31811823591948
C         4.32465008269714    3.78533643077246   13.05405774512270
C         3.73285335946266    4.69513554179184   13.92419975183651
H         3.00498988700934    5.40590215525532   13.55784635205613
C         4.08195242136621    4.68182664571082   15.26223392239443
H         3.62827142302529    5.38735915188121   15.94186515297917
C         5.00573512655973    3.76089178271412   15.73248845276973
H         5.26960385691219    3.75398534665787   16.77895973438087
C         5.58686234392222    2.84813672886330   14.86632952608701
H         6.30181180015628    2.12922692444904   15.23623666538769
C         5.24808749097961    2.85638638944521   13.52547314401188
H         5.69542937963965    2.15604852248316   12.83100581628237

