73
CSD_code = DIYLAZ | q = 0 | S = 0 | Stoichiometry = C36H27Cl2N6PRu | MND = 6
Ru        0.62222698313306    5.82597362190624    4.09920704202564
Cl       -1.06816363260852    7.43725502919874    3.70742110409389
Cl        1.65493622897316    7.32641818799848    5.59846309339760
P         2.27615253426810    4.23730304892001    4.47386754167937
N        -0.67327762165680    4.96288527927868    5.37537769942478
N        -0.29874264743603    4.77177638873096    2.90515005931392
N         1.47016919482223    6.47693640076569    2.38806993940770
N        -2.03969257891767    3.28094937609794    2.47694282399836
N        -0.75056269322199    4.17811201763330    0.69637358800308
N        -1.87031784568896    2.38958162479355   -0.98620027973654
C        -0.85894714719866    5.20478056375331    6.66932534298918
H        -0.15418857158175    5.88828655371848    7.12808546723686
C        -1.89152130522653    4.64203075142540    7.39542076674759
H        -2.00066839852872    4.87993528404493    8.44123126149386
C        -2.78275487556992    3.78292573787455    6.75963262763724
H        -3.59615429703521    3.32981033211053    7.30495319162301
C        -2.61470645432443    3.53986134142717    5.41148760667862
H        -3.28008576225425    2.90532496822360    4.84866908192007
C        -1.56080613374648    4.15202420984275    4.73880029826367
C        -1.33547358818764    4.02054504489540    3.31079970485679
C        -0.08989531704591    4.89191533959313    1.58290779442457
C         0.91830213438972    5.89440947518016    1.29074043156210
C         1.27240079851268    6.26489339055503   -0.00346361949365
H         0.79601132197562    5.75486893405700   -0.82534223322858
C         2.19548530664654    7.27601310312889   -0.17992026965957
H         2.48472597804672    7.59251569419056   -1.17009987943652
C         2.73024650539254    7.89195551114008    0.94762060346549
H         3.43552366048079    8.70221730386251    0.85533337015768
C         2.34213385780309    7.46306250321126    2.20323479983645
H         2.72839634511173    7.92810517333512    3.10258071522254
C        -1.67423431036627    3.34635412280315    1.18747811632164
C        -2.34805415460687    2.44733796613584    0.25506475674397
C        -3.43282462334220    1.67487196006792    0.67913314602180
H        -3.77394602923666    1.76037170454903    1.69738538800058
C        -4.03698581955298    0.82763881858093   -0.23052890750647
H        -4.88044314614639    0.21848749080658    0.06166234273304
C        -3.54198261621843    0.77443676457553   -1.52520044081111
H        -3.98523876112929    0.12837321909899   -2.26693489281271
C        -2.45459315473768    1.57863806211540   -1.84289502132505
H        -2.02854408594177    1.57001653739768   -2.83787554089376
C         4.01113905670636    4.57238451196222    4.03949750302175
C         4.51013542536198    5.83885511513664    4.32988927315820
H         3.85203687893464    6.57488799539496    4.77536397661843
C         5.83733452052155    6.13057728404139    4.07077890849337
H         6.22382167613822    7.11395505011269    4.29326288264224
C         6.66963628784095    5.16207263746969    3.53372826559649
H         7.70512306765341    5.39064641779045    3.32838039505695
C         6.17894525152304    3.89282226768196    3.27082453327417
H         6.83273010493977    3.13283019910387    2.86800061083986
C         4.85426601041084    3.59057285223157    3.52786047874044
H         4.47731031077570    2.59666627157998    3.33079461869164
C         2.53460382055181    3.52100605233630    6.12684314455758
C         2.45135497169080    4.37832446837349    7.21999040163740
H         2.21896581548314    5.42305168796866    7.05353369374446
C         2.69077634940473    3.89336830970775    8.49338946080166
H         2.62319364027512    4.55772540920196    9.34190104802336
C         3.02257684658304    2.56125722078947    8.67882769996005
H         3.20586354210014    2.18170371842278    9.67332759167830
C         3.13355677878039    1.71473855696346    7.58695033980832
H         3.40967766308354    0.68009518426646    7.73040977762071
C         2.89810559292131    2.19009466995950    6.31002884441295
H         2.99518286553461    1.52982872497599    5.45945168790951
C         1.77718122282578    2.84276629750453    3.42228456246012
C         0.82938997741775    1.93307165816326    3.88897532465097
H         0.54008312267116    1.95195576322445    4.93282050000082
C         0.25650434959090    1.01912569020691    3.02349845127025
H        -0.47803446969866    0.31863774156788    3.39264801237988
C         0.60238044451785    1.02011135253661    1.68159304052621
H         0.13961519104684    0.31953247621932    1.00307605173945
C         1.52667616615977    1.93590734904142    1.20505964949701
H         1.77621042476207    1.95361882446174    0.15513665458734
C         2.10455436980150    2.85005487690790    2.06686160381233
H         2.80879744566419    3.58305452765737    1.69235239240810

