52
CSD_code = DIYMOQ | q = 0 | S = 0 | Stoichiometry = C23H25ClNPPd | MND = 4
Pd        4.59269125382905   -1.66046193568315   15.22858696766695
Cl        5.69227241439643   -0.57486069157730   16.85230776408202
P         3.32731850722232   -2.01120748673014   13.38699420127755
N         2.54364499497401   -1.24858158400124   16.04194317674660
C         2.11964580930107   -1.78072644232905   17.11126096289487
H         1.06163194002942   -1.73381423729755   17.39143926507803
C         3.03142396861637   -2.54650986385270   18.00860882480664
H         3.97570488450275   -2.74168322355214   17.45621092745353
C         3.35560380782861   -1.69848851358621   19.24306055909524
H         3.92343433246508   -0.82053030909389   18.94390204178902
H         3.96000351276584   -2.27736083084133   19.93635788705872
H         2.44392526489720   -1.38580181123650   19.74979184895375
C         2.38198388470302   -3.87355779250836   18.40055071752391
H         1.46534033834147   -3.70213592986978   18.96297780459712
H         3.06319269428106   -4.44877341707919   19.02217049865921
H         2.14488213734560   -4.46203293806882   17.51576267762497
C         1.72351152110861   -0.59213083530576   15.12933253944587
C         0.73543601417856    0.31816312512216   15.49657462202236
H         0.59640089638461    0.56344910423597   16.53959195050655
C        -0.02843221919999    0.93128076735550   14.52041796489623
H        -0.78551298025155    1.64598437178363   14.80667481936269
C         0.17042162778110    0.63436123599762   13.18045276344847
H        -0.43388043945738    1.11496067794458   12.42595513741143
C         1.15414484545933   -0.26508313346035   12.80651810900633
H         1.32343667636422   -0.48911942877428   11.76252123066528
C         1.94080152601182   -0.87729164270742   13.77173347482480
C         6.39002475982159   -2.33274357646471   14.51374080990953
H         6.35201894730662   -2.60479539617764   13.45252677814229
H         6.61084187052585   -3.22594451889965   15.11750149812156
H         7.18405815461822   -1.59731709075910   14.66857871930676
C         4.06751174721533   -1.10662912979002   11.98946952443422
C         4.93167850118021   -0.07217351569903   12.34768685198389
H         5.14806618490263    0.10016646688614   13.40917137523853
C         5.51469330065481    0.71252955501801   11.37129612100322
H         6.18498734873237    1.51215143589604   11.64914846795356
C         5.24283697735144    0.46657530739458   10.03375946000384
H         5.70224461113794    1.07509660844113    9.26891185549033
C         4.38664709767598   -0.56129889882945    9.67552884986185
H         4.17797405554245   -0.75249827782473    8.63281551894938
C         3.79397837642852   -1.34787078743557   10.64867629430763
H         3.12858303761760   -2.15206147581853   10.36542361165997
C         2.51654282473024   -3.44102696898781   12.61129139715039
C         1.15322799869803   -3.69006554685796   12.72116160175582
H         0.51606392215557   -2.98692602939972   13.24043451877631
C         0.61309893799124   -4.83345501688418   12.15864094689475
H        -0.44798770817398   -5.02007914359483   12.23935811984546
C         1.42701836537655   -5.73641497421365   11.49536497199437
H         1.00047373659110   -6.62612701790260   11.05654138772084
C         2.79090001258420   -5.50290046986617   11.40165170286116
H         3.42735063192806   -6.21191898359649   10.89292207226231
C         3.33542385333832   -4.36548177258833   11.96483452194017
H         4.39991524018711   -4.17653801691855   11.90926428554211

