32
CSD_code = DIYPEJ | q = 0 | S = 0 | Stoichiometry = C11H18Cl2Ti | MND = 8
C         1.87024318932378    4.90139081976133   10.77298961673516
H         1.42380660866936    3.91266675259995   10.60866415510472
H         1.40819474495243    5.35462321501193   11.65895796670989
H         2.93702646479733    4.75153061704678   10.99518982708612
C        -0.18914984358711    7.29978032934258    9.37865659936231
C         0.36321641136840    7.64715675547538    8.11681781718335
C         0.37893530674505    6.47836141668818    7.30544082446117
C        -0.16300241640406    5.40732866131749    8.06493084890918
C        -0.52029415110287    5.91083214257828    9.35246094844138
C        -0.45512741330116    8.26634084737866   10.49593851343750
H         0.43956941059822    8.85064872886328   10.71970156878309
H        -0.75878528628297    7.74380438100646   11.40064256030765
H        -1.25242795500995    8.95756553519636   10.21559831433978
C         0.75717758663269    9.02912810034724    7.68684801985079
H        -0.09299482855498    9.53425653476081    7.22170929574182
H         1.57108969252248    8.99838193541291    6.96193176194334
H         1.08049490459261    9.62167219954320    8.54189575686256
C         0.78297302085740    6.40270277523255    5.86301209238316
H        -0.08223561975406    6.58804429223731    5.22152887273064
H         1.17944944571956    5.41619835943481    5.62454978186922
H         1.54446354930063    7.14622781897566    5.62812827086743
C        -0.38778046514957    4.01771386245235    7.54326848922380
H        -0.74088715599002    3.35589531602528    8.33105184214491
H         0.53833175390152    3.60664042086394    7.13582799991117
H        -1.13374265976824    4.03008701343111    6.74648846320604
C        -1.35442729722388    5.19248743087356   10.37499411028339
H        -1.15754201597266    5.56149448762530   11.37984806490722
H        -1.16462320565825    4.12097724027877   10.36196286591660
H        -2.41347431634714    5.35162598889902   10.15789969774465
Cl        3.11580900076361    4.99599381783342    7.86721391771286
Cl        3.04267371834831    7.68444639604242    9.82439358289174
Ti        1.74623982101151    6.11119580746421    9.11095755294695

