97
CSD_code = DIYSEK | q = 0 | S = 0 | Stoichiometry = C35H56NO4V | MND = 5
V         8.06426351064901    5.72944814362192    0.29056622105662
O         7.23058364725641    4.66929938042859    1.20922467958791
O         8.96836004911009    5.08297227577170   -0.90476650880311
O         8.93656269698438    6.61606958112610    1.18031126782686
O         6.92378873237018    6.65929174463343   -0.46590682928204
N         9.54317080277591    3.20089962932281    1.00776865574104
C         6.87303930144614    3.83157040463355    2.16188668457597
C         5.53012973810216    3.66796417335811    2.55834740757111
C         5.24303118937056    2.70481876969144    3.51762971524965
H         4.21843940255562    2.56901790301382    3.81007205117474
C         6.21360810822292    1.91169608343481    4.11335450056092
C         7.53624460643492    2.12961073265541    3.74386227229110
H         8.33137733444373    1.56067964246340    4.20313919215416
C         7.87593957452829    3.07315494728611    2.79632022943069
C         4.44536430712598    4.56240512781615    1.96554916722746
C         4.38953887509989    4.38077567657963    0.44124424560515
H         4.21696420703488    3.33391165931763    0.19500908678200
H         5.31638925187097    4.70118994456099   -0.03345888682819
H         3.57342570589176    4.97080668054165    0.02627842007476
C         3.04983369891055    4.25190199789199    2.52051136016038
H         2.74699713019335    3.23515074599234    2.28091601413054
H         2.32745142383450    4.93053023843589    2.07078143990404
H         3.01282762917669    4.39335107193400    3.59800835967600
C         4.77379096732655    6.02246254131738    2.31752139201495
H         4.01995773231917    6.68682521996109    1.89690040764175
H         5.75195841671387    6.31517620668270    1.93127035442800
H         4.78124861628744    6.15071821575533    3.39902009585500
C         5.89073843374757    0.84049840308976    5.14432581299165
C         6.60639316847413    1.17725106658566    6.45996396370369
H         6.28600422640309    2.15175396706824    6.82192427415642
H         7.68441875321523    1.20134679218758    6.32960828148268
H         6.37106706815734    0.43204396170514    7.21710546188994
C         6.37969811747063   -0.51707769898287    4.61942841237425
H         6.14977454675087   -1.30268941395059    5.33626982427527
H         7.45285447618519   -0.51293695639037    4.45138260443320
H         5.88850350113495   -0.75381212112020    3.67789620974412
C         4.39173081397090    0.72601526322661    5.43447656142955
H         4.22441341378795   -0.06015372407441    6.16815703209302
H         3.83705426156937    0.46876759618891    4.53519590350122
H         4.00019559419630    1.65426770847679    5.84365471309081
C         9.31145791811363    3.34676770241684    2.43747086343564
H         9.52784908922557    4.39387531935375    2.69214925752172
H         9.97754849990639    2.70364644607915    3.04044313302785
C         9.97848277154139    4.58222270593245   -1.58793779739260
C        10.11421118446186    4.76685599891475   -2.97885079665982
C        11.17752422655774    4.14514443740724   -3.62177717131024
H        11.27505725305790    4.27503917863441   -4.68355908493380
C        12.11653446696454    3.36679912749409   -2.95973392371385
C        11.98556468488882    3.23657438686368   -1.58161148246844
H        12.70747104985366    2.66459243923160   -1.01719166546402
C        10.94834119032569    3.83265043826185   -0.89445351310437
C         9.13240842153296    5.66233830094840   -3.72875591616324
C         7.70230943520711    5.12448233902617   -3.56923868525484
H         7.37656555505706    5.15726955656766   -2.53006009743178
H         7.64862042980413    4.09401632369813   -3.91793698265014
H         7.01169249242721    5.72414992381514   -4.16065861929517
C         9.43068885845645    5.74473146936240   -5.23078691831275
H         8.70395234277015    6.40257161191270   -5.70378788769102
H         9.35364720277952    4.76764804950341   -5.70229490188463
H        10.42034156686579    6.15567758102018   -5.41531382858170
C         9.23520562823472    7.08369885587493   -3.15221962139368
H         9.01525688093062    7.09603422605354   -2.08305751520440
H         8.53415992654767    7.74473372851100   -3.66026259652905
H        10.24238814236014    7.47146993837907   -3.29823632390800
C        13.26896600649871    2.67350366455430   -3.67101615015042
C        14.59595875602366    3.20004624640422   -3.10660541891967
H        14.68418314288437    2.99356161418747   -2.04392920820157
H        14.66346150794308    4.27620148173822   -3.25033683039108
H        15.43421890774215    2.72929358219744   -3.61621594433465
C        13.26692966679671    2.91450054693143   -5.18303926763936
H        14.10640230535498    2.38897591887847   -5.63410659805475
H        13.37312030135337    3.97241131313315   -5.41082918185935
H        12.35322439397789    2.53991959356096   -5.63841389266309
C        13.16521887439871    1.16081057848587   -3.42932882700080
H        13.97707653133168    0.64244337248293   -3.93539824277400
H        12.22052541383758    0.78335757903012   -3.81517085153438
H        13.21847055296342    0.92481792727929   -2.37039050805529
C        10.83654574101122    3.73271336837736    0.60266085181447
H        11.67949815058406    3.14126127270014    1.00318913157069
H        10.90839039511132    4.74937809390265    1.01427814458835
C         9.26862019902826    1.86594970842249    0.49994338460842
H         8.23402968330546    1.62526836978121    0.76622664597521
H         9.33411709747018    1.91439068415977   -0.59218119311906
C        10.17954244456093    0.73094628909978    0.99493655009654
H        10.12526015949700    0.66041256616846    2.08271648166998
H        11.21407418653474    0.93980181582944    0.71723900934635
C         9.75694065981602   -0.59892312399090    0.38519446444029
H         8.73191500660383   -0.83601753672987    0.66263042046862
H        10.40167276355138   -1.40347837059770    0.73254319873685
H         9.81678066991765   -0.55528128766135   -0.70033687416289
C         6.40036699736767    7.91987562582496   -0.64462118226843
H         5.33666177142657    7.90727584628835   -0.34853120758041
H         6.45469506276718    8.17752836120256   -1.71698913299654
C         7.15713115078546    8.96061857381911    0.17894102580575
H         7.09983024978095    8.69652735668721    1.23571733148215
H         6.73364638735297    9.94981273446335    0.02419136380271
H         8.20761261346537    8.95943256591854   -0.11485546832207

