52
CSD_code = DIYSUZ | q = 0 | S = 0 | Stoichiometry = C17H28O6W | MND = 9
W         3.74516643074423    2.01264975635184    3.13009963793653
O         4.06986578299166    2.92247264779761    1.20467549976194
O         4.85660899047222    3.85559141635430    2.98852678306512
O         2.23119502493942    3.65374573120336    3.46838353995061
O         1.79721427343056    1.98907910869461    2.15948921937687
O         5.77192909985903    1.33048211404123    2.55850898033368
O         4.02356894078114    0.20837259619725    1.92466040905557
C         4.78054787761668    3.81439987296809    1.73365833165661
C         5.54113499136709    4.80561853848565    0.88706111586788
C         1.49608299347946    3.13217740334187    2.58960728189711
C         0.25090653986348    3.83583250116842    2.10422400358870
C         5.25017064841056    0.45180309250744    1.81219391541811
C         6.10200428528374   -0.30620239785217    0.82139164248888
C         3.98992533483284    1.98632754135245    5.20835687937143
C         2.79567421032916    1.17584345431963    4.82753447500634
C         4.13238390513048    0.61939895814850    4.70854954957284
C         4.43880127987066    2.74373885263844    6.42697901258882
C         4.21919007478994    1.95187146417875    7.71956939385029
C         3.64361502958836    4.05460528009492    6.47189633331119
C         5.93137395435103    3.05226014772636    6.24619767598193
C         1.51934928042357    0.75460861655785    5.49544605391369
C         0.72979259458759   -0.16653650903756    4.56257385723649
C         4.87951197281045   -0.62978633945151    5.07248550865907
C         4.11766200198594   -1.53164884953845    6.04503479867677
H         5.48634758604810    5.79078438540366    1.34400929611730
H         6.58676254231768    4.50137003267154    0.85275376572746
H         5.13678368814157    4.82320816984801   -0.12156769930974
H         0.14242777239437    3.70296051720291    1.03138227989711
H        -0.61091358024924    3.38583009292808    2.59429599681277
H         0.29851214571734    4.88971350790026    2.36079726055214
H         5.72490449781944   -1.31971357862200    0.71795987597137
H         7.13665993251110   -0.30734844778409    1.15221017957885
H         6.03994400692779    0.18486180433072   -0.14837373423618
H         4.53680487051850    2.54365239288690    8.57601470528496
H         4.79652930222179    1.03161322949124    7.70514127391800
H         3.16763883635451    1.70646095527099    7.84086159784829
H         4.00987365529642    4.70503384988920    7.26360137182180
H         2.59018978601051    3.84824361451162    6.64402938701397
H         3.73700195375960    4.56339376253546    5.51318509571860
H         6.29159008958982    3.70479376874309    7.03889140028115
H         6.08227271129985    3.53955211307305    5.28347118255870
H         6.51222539257539    2.13292344663592    6.25915767110397
H         0.91978535485709    1.64330584391058    5.72208521839244
H         1.72776931213959    0.23761747110948    6.43672964161683
H        -0.24900700190428   -0.39876848761277    4.97721331757857
H         1.27201564151025   -1.09530306426506    4.40279436650874
H         0.60424395149732    0.31631996740417    3.59352232027243
H         5.84819619006837   -0.35730194584310    5.50408820845906
H         5.08090348993987   -1.19949395874097    4.15569085093260
H         4.71200390121205   -2.41203789903453    6.28135776859337
H         3.18029313590434   -1.85552002513845    5.60266562442767
H         3.90146531758863   -1.00285651694557    6.96892787799056

