68
CSD_code = DIYVOZ | q = 0 | S = 0 | Stoichiometry = C33H29CoI2O3 | MND = 8
I         7.71367402347548   11.47322383231782    5.21957304988719
I         5.71885146104233    9.87540493677932    2.38357791810066
Co        5.30687855053111   10.61741995455752    4.81551990404066
O         2.76526833012596   12.64980727846971    9.03197370384324
O         3.82255659775272    7.30485122125288    4.27157671557924
O         6.52803930955884    8.08067260272434    5.50345912470189
C         4.21412055108214   12.39589814069879    4.59185353597299
C         4.58468008853787   12.26641666699006    5.96126821751721
C         4.07164415552456   11.01872576171424    6.44949495953336
C         3.31220100320209   10.42174571020674    5.39984023360613
C         3.37575361166421   11.29212103184561    4.26174854634177
C         4.46054254496098   13.59190358785444    3.72725909435284
H         5.40542925031760   14.07000803871347    3.97907026034801
H         3.65801296239336   14.31916951874018    3.86528854912770
H         4.49416485756542   13.31436451226549    2.67503774882609
C         5.20793630150780   13.32163003424705    6.80491868789773
H         5.94564812469772   12.91425894419033    7.49361678214677
H         4.41676944656260   13.78609207122080    7.39665748246692
H         5.69146307356843   14.08412653982808    6.19984266134989
C         2.53489062790949   11.16475246434603    3.03939879845502
H         2.93820589733138   11.74488411884544    2.21307527023029
H         1.53406387401870   11.53829321900439    3.26894592712414
H         2.44458500606439   10.12952927207670    2.71674446518938
C         4.13082502823066   10.56639622854693    7.88182424958887
H         4.64689943896430   11.32166715057725    8.47550922519326
H         4.67579493444331    9.62242249841744    7.97163272568822
C         2.73830581426948   10.37339295750025    8.42983682690727
C         2.07334963295582   11.47113092047221    9.03753225027644
C         0.82500981720119   11.30027870638787    9.57722855763038
H         0.30275754478573   12.11531533014265   10.05330558253375
C         0.17859520409604   10.04802964877792    9.52226277142496
C        -1.10681120965735    9.85995702058801   10.07002946379448
H        -1.59336098955999   10.69622880402037   10.55165715723717
C        -1.72859506095410    8.64489529139111    9.99408135605945
H        -2.71251704741782    8.50930987277053   10.41820068431938
C        -1.09628732981040    7.56567631009200    9.36010327324934
H        -1.60198965231328    6.61351309278875    9.30106375280250
C         0.15076006972849    7.71562414647414    8.81934134711552
H         0.63782405634593    6.88574553936914    8.32931629039498
C         0.82308323057053    8.95222245980110    8.89612590155520
C         2.12217950695127    9.14692808248835    8.35671056219805
C         2.82295827707161    8.03831521431036    7.66889350819168
C         3.36106810789006    6.94911080684413    8.40388432706557
C         3.25864786396837    6.86056390087128    9.80685881162510
H         2.75716128895317    7.65159921349196   10.34502623625785
C         3.78323689937909    5.79070090875596   10.47769275950753
H         3.69827427353096    5.72981306506646   11.55248309211433
C         4.43727950298612    4.76666162515223    9.77747381729583
H         4.84452134279826    3.92766357887977   10.32202006062134
C         4.56488887476174    4.83338742166436    8.41822924746700
H         5.07666921958456    4.05167817353112    7.87554883758454
C         4.03847906968430    5.92411551513258    7.69610086971582
C         4.19082786539414    6.01877022227902    6.29750877821295
H         4.72772478623107    5.23229788945002    5.79143361166457
C         3.68688985303760    7.09251523961645    5.61020792299362
C         2.97553787245693    8.10682657263889    6.30608538257877
C         2.39123823918270    9.24522964205265    5.51316923767031
H         2.13994164798128    8.88245653589639    4.51486503412534
H         1.46948679264365    9.59109397290353    5.99675305857853
C         2.20678909821434   13.75360016596048    9.70173262962263
H         1.27336083192569   14.07893085565710    9.23089441140962
H         2.94425921351580   14.55190656595583    9.62736100971118
H         2.02367065549832   13.53118587714677   10.75713710251103
C         4.49643104078242    6.33659466256692    3.49996333055682
H         4.48790758698198    6.71689154013906    2.47997815965571
H         3.98407646797008    5.37089636390425    3.54030334839352
H         5.53312461465195    6.21578570749060    3.82714609980386
C         5.99864607472485    9.05977524316292    5.25674570044437

