39
CSD_code = DIYYUF | q = 0 | S = 0 | Stoichiometry = C17H12Cl5N4Re | MND = 6
Re        3.16191699478761    5.17136754292007    2.94531716723577
Cl        4.02372364664595    3.47157419679490    4.15592574689192
Cl        1.92317231566676    5.79447833591684    4.89351312338843
Cl        4.02131220086825    4.12943476317716    1.02663351373558
Cl        3.51264571904822   11.89294887208434    0.60509589244895
Cl        7.47239485770456   11.35145322731574    3.37844028155002
N         1.38174469355578    4.03513805990939    2.56577674463520
N         0.74474735520900    6.02677952602672    1.58584487280920
N         1.94878524033234    6.36280343999097    1.86258977277312
N         4.37251729208941    6.43647528203051    3.13676643156594
C         0.42280915560248    4.76322291248994    1.94603973378171
C        -0.84839512649890    4.24357994857527    1.67078268473010
H        -1.56648089423223    4.87658556777520    1.17777549233152
C        -1.12258123642120    2.94840117517315    2.04372197257736
H        -2.09111111850912    2.51370573853347    1.84964080675415
C        -0.12912743436070    2.20406936376927    2.67782813651773
H        -0.30589796135106    1.18600687208822    2.98347262118394
C         1.09963672151995    2.78580141215781    2.91932440809277
H         1.89303033507466    2.24168134432839    3.41617885986374
C         2.27939585579010    7.67870127550502    1.49697312322174
C         3.46358509706453    7.92633905985520    0.80245254549383
H         4.07500143844288    7.09347210238137    0.48777442502649
C         3.82915870722361    9.22303728551260    0.50565858120039
H         4.74153274435291    9.42353967044746   -0.03269463894046
C         3.01817305281317   10.27386057869587    0.91462761574676
C         1.82010669236331   10.03435482660596    1.57333275321470
H         1.19298793319985   10.86006546636995    1.86968289383054
C         1.44262063789928    8.73522097424410    1.85002552786181
H         0.52240729801051    8.52416833774346    2.37142724000111
C         5.10783982089216    7.52921955641565    3.23667702590315
C         6.40300338008326    7.59194892577855    2.67897869065081
H         6.80144903248939    6.70779998503656    2.20659106861121
C         7.12426435800442    8.76090244778405    2.73114431942732
H         8.11146734798940    8.81175199274488    2.29907138793689
C         6.57806225058310    9.88667288364722    3.34131711806649
C         5.31264671522328    9.83849648746090    3.92107153050651
H         4.90967845095216   10.71613906933815    4.40153384740916
C         4.58292869955669    8.67601481467989    3.87562808054481
H         3.60104773105280    8.60838667859320    4.31695860137089

