35
CSD_code = DIYYAL | q = 0 | S = 0 | Stoichiometry = C6H12N6O10Zn | MND = 6
Zn        0.00014028567410   -0.00027086346733   -0.00031109725100
O        -0.40125650226144    1.84754475159694   -0.71619837416701
O         1.82509885657104   -0.01792624206992   -0.87163287115372
O         0.78887642683933    0.80475129127918    1.62672587780805
O         1.97247576649349    2.13029645611376    2.79197550235994
O         1.98464091338870    2.31552197704507    0.67293127048079
N         0.40583940498455    3.88830975284420   -1.14661551997505
N         3.65427841854245    1.17092289544445   -1.36520707435360
N         1.59586789605362    1.76625657476435    1.70667614318911
C         0.44464305499714    2.54989556963550   -1.24689803375561
C         1.50668380709857    1.97728767399484   -2.16609589072111
C         2.32581269468156    0.97502143292214   -1.37535245043081
H         1.19937019103050    4.44903726362877   -1.40326631922626
H        -0.22503611671986    4.27247155074343   -0.45880344035500
H         4.19474530614312    0.57366365725048   -0.75705892072374
H         4.04482803258370    2.06974971435738   -1.58787944935986
H         0.97758991840065    1.40804800388795   -2.93466392139469
H         2.12444791562957    2.75171418891339   -2.61467524498946
O         0.40163788450573   -1.84823617368425    0.71492426931569
O        -1.82459269214523    0.01759514163980    0.87177058596330
O        -0.78909653713737   -0.80513834036869   -1.62706908299170
C        -0.44440487501042   -2.55041603186035    1.24562556951314
C        -2.32500911466120   -0.97506722272487    1.37634580890123
N        -1.59710377459708   -1.76581604360427   -1.70673969037252
N        -0.40669986054362   -3.88879924027995    1.14421211023273
C        -1.50527464841084   -1.97766193536830    2.16606723461271
N        -3.65354196811249   -1.17041614536130    1.36802362850858
O        -1.97467366226792   -2.12928428885997   -2.79190127949886
O        -1.98568730363308   -2.31501170814516   -0.67288638632262
H        -1.20077403273686   -4.44896421931074    1.40043112574170
H         0.22320482086509   -4.27276353613331    0.45539024022416
H        -0.97518260945453   -1.40863692176581    2.93410713197163
H        -2.12274472302497   -2.75198485271312    2.61523358894645
H        -4.19472829538945   -0.57291215984082    0.76077047003821
H        -4.04437487837583   -2.06878197050371    1.59204448923464

