62
CSD_code = DIYYOZ | q = 0 | S = 0 | Stoichiometry = C29H23Cl4N3OPRe | MND = 6
Re        9.77733197521623   11.16073795175640    9.55478134775227
Cl        7.78825852577729   11.51507938924457    8.50172257149854
Cl        8.99845278654026   12.21669783748487   11.44684329308680
Cl       10.50700523902203    9.65402912731176    8.04465463178095
O         8.69862170247493    9.31494708992140   10.48369629262409
N        10.75844077487574   12.76650335377923    8.87008314008107
N        12.39093682875182   12.05505345713904   10.33966264507415
N        11.56644207757701   11.05558772456032   10.48625362531766
P         7.84510187470615    8.98308138970082   11.66162171609602
C        11.98041584564493   12.97181878607616    9.46859848387938
C        12.77281254267352   14.09370542930714    9.15330335000712
H        13.71629682810567   14.19935314943969    9.66165579947548
C        12.32336586094733   14.98887142612078    8.22465821133342
H        12.90793235392240   15.85587010368825    7.96027216471617
C        11.07843852786722   14.76406286548457    7.61256647872732
H        10.69683349299699   15.45189195511081    6.87614495132657
C        10.34292821347747   13.66192767341864    7.95811768065961
H         9.37734607895277   13.46337425560356    7.51185835398918
C        11.99632301574735   10.09226067245452   11.38950245050195
C        12.83240550354192   10.44030311418113   12.45607814622418
H        13.13719912371312   11.46974274374766   12.55665162785934
C        13.23778446668518    9.48751327262181   13.36516817528019
H        13.87331890648630    9.75581274914957   14.19456368101726
C        12.82246946215605    8.17241928475720   13.20750867948628
C        12.01260070662794    7.80466098192750   12.14346601597018
H        11.71201911880069    6.77566666114537   12.02423994938627
C        11.59985621173966    8.76075467836028   11.23923565354332
H        10.99186924751086    8.47595428915191   10.39480215950758
C         8.82765375060807    8.64410596547098   13.15767973877475
C         9.54057672738030    9.68674736318312   13.73839205136528
H         9.49158387453157   10.67378872706052   13.30019822946437
C        10.30237977001085    9.45557955277775   14.86900380064796
H        10.84706698262680   10.26957853477664   15.32335872490210
C        10.36197872811586    8.18487867723896   15.41845309564222
H        10.95315396336606    8.00577650733077   16.30396009243190
C         9.67004820180804    7.14124267976258   14.82726055155207
H         9.72733261511458    6.14792380753267   15.24729208762873
C         8.90227450796483    7.36799983954274   13.69822527416430
H         8.35791605700429    6.55556230539718   13.23765314021917
C         6.88842030884945    7.49396988868469   11.27603691719625
C         7.15010617871981    6.80817653431631   10.09948056843266
H         7.92664025871460    7.17214342657637    9.44224077744463
C         6.41126993408590    5.68134808252116    9.78270453591820
H         6.60992136219217    5.14527649006677    8.86661198993301
C         5.41586490812171    5.24469858727140   10.64125640090916
H         4.83848050974093    4.36607712503923   10.39413820882424
C         5.15244601611973    5.93356892709723   11.81623601094414
H         4.37205365562694    5.59165844594751   12.48003703912180
C         5.88573523259218    7.06089663345990   12.13518810465388
H         5.68837644540494    7.61238698938053   13.04457058941937
C         6.58882227438297   10.23226533776020   12.06358604470265
C         5.77420214556129   10.62937138515595   11.00962841374453
H         5.93151408181697   10.20302675013241   10.02833462891130
C         4.79281139957464   11.57971178886750   11.21753104800900
H         4.17322670228387   11.90266676215174   10.39442964862575
C         4.61300403258806   12.11857394610182   12.48166030712988
H         3.85143961135231   12.86692685373086   12.64487455502862
C         5.40682637289713   11.70079247794063   13.53717941848969
H         5.26054280656170   12.11862051372165   14.52251471886195
C         6.39552398074165   10.75409056090438   13.33391086228662
H         7.02075691181016   10.43136243742639   14.15387755414451
Cl       13.32224239918180    6.97992468304620   14.34568359428793

