84
CSD_code = DIYZUI | q = 1 | S = 0 | Stoichiometry = C28H49ClMoN3P2(1+) | MND = 6
Mo        4.65210911428291    6.87685172205777    2.04118629877506
Cl        4.28943861901647    5.30820934508067    3.68745014346816
P         2.85242645348905    5.70650787692766    0.82805359848672
P         6.90814357897127    7.33404861513770    2.98362915412834
N         5.76896346286451    5.29688542381961    1.13028002374591
N         4.98970181890922    7.98125244758769    0.75486928412547
N         3.51346631754771    8.27144418243827    3.17681572025251
C         2.77376580547011    6.07624499013482   -1.03134800549109
C         1.83034120797459    5.18124534238279   -1.83377410888899
C         4.18616405749123    5.89407313139535   -1.59733218971070
C         2.37966692123626    7.54395943852208   -1.20603458099989
C         1.11205024171260    5.31130214836402    1.48349259799281
C         0.17809559867997    6.45569677647645    1.08425602553262
C         0.54809887508143    3.96258505360469    1.03773946630845
C         1.19439570812587    5.31231786798807    3.01242100722200
C         3.68044704592027    4.04250001396629    0.85750382042639
C         5.16653371101841    4.17091784203120    0.71009860597400
C         5.89057505620511    3.13770821840688    0.12732306402746
C         7.25724091374709    3.27225056714440   -0.04671802584630
C         7.86239998485438    4.44545407155445    0.36963823626293
C         7.09503063393440    5.44004480084970    0.96370783691303
C         7.73705483619139    6.70410966196075    1.43962594984875
C         7.55226044320800    9.12140931147060    3.08718425983344
C         6.73237326679032    9.95316611497327    2.09837731600273
C         9.02822357886340    9.32014960818278    2.74081302614270
C         7.24494408185806    9.65006760088062    4.48970349505428
C         7.73501298033829    6.27271520609424    4.32905237966747
C         6.92453474385687    6.41538095555960    5.62030574183058
C         7.68255063587029    4.80649098020091    3.88375508998432
C         9.19861532739809    6.61714280656994    4.60236805351867
C         2.92428209387198    9.31342573440381    2.56311280658118
C         2.21583985597961   10.29779063768493    3.22042274346754
C         2.07254777834729   10.23228521390000    4.59977047523737
C         2.66948824599669    9.16153432654801    5.24791015004411
C         3.37109305533238    8.22684051120992    4.51239340797192
H         2.05570151876740    4.12637831494371   -1.69240109774658
H         0.78764112665814    5.36099814646193   -1.59141890332294
H         1.95866407009499    5.40251526155101   -2.89257815972049
H         4.21722485569091    6.28299559713547   -2.61399485344464
H         4.91754812532045    6.44286372684605   -1.00376231165984
H         4.47237854111656    4.84556737171697   -1.64034676920348
H         1.33808074713009    7.72189006625225   -0.96099574754170
H         3.00155850545810    8.16943294384309   -0.56753161401381
H         2.53314716784055    7.84725805945800   -2.24019237962422
H         0.64372702810715    7.41851514904142    1.30237245816980
H        -0.09025248773035    6.41554221462146    0.03285452212827
H        -0.74481133722113    6.39163725378711    1.65866374961363
H        -0.45865978371188    3.85905585217986    1.44002714743742
H         0.48150125697564    3.86986551985727   -0.04004300850984
H         1.13979701902181    3.13660754268306    1.42524354344360
H         0.19750267905719    5.17426417768567    3.42843100864221
H         1.81672394227112    4.50263596066548    3.38779403415146
H         1.58420385059843    6.26271084770015    3.38405135243035
H         3.45914634273331    3.62548600400060    1.84811485022247
H         3.27999703100293    3.35628696928330    0.10651930500566
H         5.38321686841043    2.24037048948774   -0.19040409612585
H         7.83570783103331    2.48285793710797   -0.49902146374467
H         8.92377360287049    4.58903351734763    0.24187451053539
H         7.55038844712106    7.48818120808771    0.69637124747855
H         8.81560033463991    6.57149055203269    1.55137231810628
H         6.95129539330175    9.67373479605988    1.07001558447727
H         5.66332914965117    9.83833960184194    2.28017801394150
H         6.98800314967661   11.00527935372234    2.21268598566643
H         9.24112463472143   10.38828578895450    2.74629510066631
H         9.69679988410837    8.85512588784802    3.45432623329769
H         9.25909679912038    8.94698003358975    1.74614623162537
H         7.38029565769605   10.73015326684283    4.51447765346696
H         6.20812070267004    9.43552569681653    4.75623455800916
H         7.90371995894145    9.22223685417112    5.23976264709497
H         6.87705760429805    7.44428633310761    5.96452270850228
H         5.91135293385828    6.04723822063158    5.47925468412704
H         7.38534673266604    5.81982478297356    6.40680202156778
H         7.94250297194131    4.17179189823954    4.72983110639143
H         6.68655053885496    4.51348122320440    3.55571016425114
H         8.39436407937331    4.60090907381663    3.08725866311236
H         9.61609190164235    5.85469645267075    5.25892383440734
H         9.79093477739995    6.62177190671860    3.69014167358974
H         9.30495487599953    7.57122484957703    5.10941366156807
H         3.02860739345115    9.34136500585455    1.48618891412170
H         1.77581770688743   11.10311247046490    2.65443532206811
H         1.52068336724656   10.98115523778571    5.14355726331944
H         2.59983759969106    9.04912924716455    6.31806285176433
H         3.85054541977486    7.40069425547943    5.02278678669785
H         5.20428343334965    8.60810853319538   -0.01566417433239

