63
CSD_code = DIZCEV | q = 0 | S = 0 | Stoichiometry = C27H25N5O5Pd | MND = 4
Pd        5.63372463201022    3.50439635741879    3.53507194262903
O         6.85191944829066    4.78630443592498    2.61982292933928
O         4.53017438643749    2.12431177535605    4.52857371478909
O         5.61312224391486   -0.58045243899309    6.60326917027504
O         8.53549273952777   -5.44562584710533   10.45286581708228
O         6.60812650881615   -6.23220938952097   10.99207833213016
N        10.88050673489092    6.74454160396338    1.13811452108937
N         7.07215566178645    2.48700158060598    4.30074347519167
N         6.66617222214729    1.44706383781304    5.07316627689537
N         7.32020014477836   -5.43987966825105   10.40439837913068
N         4.05687131315043    4.48000927645320    2.78180018806404
C        12.60992915899135    7.63658349767576    2.69124230154467
H        12.12036051367086    8.60079149899415    2.79740806157880
H        13.68337720898596    7.77963715203871    2.78788079228980
H        12.26812987949818    6.99165347067439    3.49618774342928
C        12.28936684149802    7.01327842661038    1.33084026906098
H        12.86172826204594    6.08806653639894    1.20643623988261
H        12.60827979950858    7.69669391933834    0.54068226235875
C         9.64401666587351    8.90937639844756    1.04716303742879
H         9.05948305892320    8.62070012265787    1.91660606055831
H         9.02095705262780    9.50867948047005    0.38782425007273
H        10.47913024481300    9.52090687954202    1.37895609666575
C        10.14460941960728    7.66723683872044    0.30575214850915
H        10.79997894217447    7.97786937492494   -0.51428563274999
H         9.30026172096431    7.13611766086035   -0.13933094449297
C        10.23427465219287    5.78986887338738    1.88131598759796
C        10.96452208436387    4.80960407619290    2.59911124753939
H        12.04087049065778    4.80384690533186    2.58479737162952
C        10.31759770435077    3.84069894017540    3.30676235251214
H        10.90054466343368    3.10370655807649    3.84135836121340
C         8.91269182437686    3.74610266506568    3.37669432041407
C         8.15149499452921    4.72591706133451    2.65845760195161
C         8.84863590257780    5.71342954624621    1.94163618237701
H         8.21936829344883    6.43050670815582    1.44044292111959
C         8.34877773206097    2.70110095180726    4.14736200168439
H         9.02763830293800    2.01892896208056    4.65645802502517
C         5.36362848387564    1.33918381231096    5.13222472622173
C         4.80954401126758    0.26029991564319    5.93535734159383
C         3.48808654121669   -0.07400693789145    6.15050244927723
H         2.63902249223174    0.42982739399444    5.73721598549879
C         3.50095995308974   -1.18556406888550    7.00101689614804
H         2.64635284377965   -1.71025494199755    7.37633647765718
C         4.83019489682961   -1.46738392374576    7.25799172464767
C         5.45325141881059   -2.48745926930904    8.06182025587685
C         4.68619197999164   -3.43031531286503    8.76036885074377
H         3.61072020568361   -3.39772571026723    8.69696654469889
C         5.29614223216760   -4.39625135582892    9.52599811223559
H         4.72071917663167   -5.12940926221164   10.07029871856058
C         6.68673835247470   -4.43549247599798    9.60588962960363
C         7.46545492836105   -3.50746493698909    8.91747713368330
H         8.54028806933195   -3.56303472613974    8.99785515876269
C         6.85188338134697   -2.54323501906455    8.15296899627504
H         7.43729603139395   -1.81604396039394    7.61303263635427
C         3.07648318873962    4.89214539417136    3.58927149011694
H         3.21136200618867    4.69541365723893    4.65025621545774
C         1.94156519534297    5.52605206640184    3.11388506563340
H         1.17209490465617    5.84328901176640    3.79981542145917
C         1.81460604643816    5.74470769687770    1.75001813765895
H         0.94174156454902    6.23629417207641    1.34838777381816
C         2.83581137541109    5.31677769887549    0.91505219164490
H         2.77904217072454    5.46693844031240   -0.15144822401469
C         3.93822312130339    4.68919953479287    1.46934132018471
H         4.76610397834108    4.35074907828217    0.85333516440949

