60
CSD_code = DIZDEW | q = 0 | S = 0 | Stoichiometry = C26H30Cl2OTi | MND = 8
Ti        4.90880771792212    6.83776464124198    5.93410483118288
Cl        6.54466566629330    8.20538300725335    6.33132496989695
Cl        5.16983747837574    5.54179541402989    7.66396436829331
O         5.43318711702211    5.80836039644991    4.73173815578963
C         2.92656234613407    6.59774392119835    4.90704031585044
C         3.48248988255974    7.80847096797406    4.42056415457103
H         3.72824338123944    8.03134216828244    3.38838058967994
C         3.56911588047596    8.71641206660670    5.50275299729570
C         3.07255937341439    8.07672781723038    6.65610566280127
C         2.66641236700824    6.77227861640595    6.28997033472223
C         5.17833994241528    5.21441750378347    3.57044564529092
C         6.23507171748943    4.83945217999588    2.71379326396947
C         5.91357692227162    4.21541665714027    1.52130833146820
C         4.60261794753856    3.94124390244738    1.13996355555968
C         3.58391764916581    4.32321563824542    1.99844367970952
C         3.84263414207879    4.96768761610604    3.19895736420039
C         1.36052584911005    5.42836105436788    3.42786424983234
C         1.18856344700092    6.32583370703916    2.38003693494305
C        -0.03999910770362    6.45284007216824    1.75911817572411
C        -1.11582678769538    5.68857806480347    2.18034933408238
C        -0.95409864575159    4.79578173174941    3.22465447905682
C         0.27735562368668    4.66766004177814    3.84460383045742
C         2.69483836788747    5.31685812257873    4.13723153704391
C         7.67046290247224    5.16950771464173    3.10902045602090
C         4.34127345497088    3.24159522626154   -0.18477085547552
C         8.00137722424493    4.56780972637621    4.48515852118085
H         7.41768591664920    5.03011078973168    5.28560992343883
H         9.05506032705222    4.72287406689717    4.70747131620376
H         7.80262741037244    3.49742007252553    4.48332432001033
C         7.82125480230645    6.69917021561040    3.14885536045941
H         7.14026678854472    7.14976078449999    3.87606530309121
H         7.61104486653685    7.12141534203670    2.16731021606709
H         8.83867611959294    6.96336494631549    3.42846003845296
C         8.69120215573549    4.61946443909910    2.10618962939916
H         8.55563127789078    5.05909677026143    1.12087975886019
H         8.62196197321011    3.53676508994310    2.03078080758121
H         9.69422494489350    4.86910023460467    2.44474730660501
C         2.84816780545933    3.04394135329962   -0.46043474323087
H         2.72062996156954    2.55058164085459   -1.42172181573177
H         2.32682672077037    3.99752848891537   -0.49979624672181
H         2.38783502104428    2.41854813357707    0.30050582988513
C         4.92794691296332    4.08685885011324   -1.32433947168410
H         4.72708762182276    3.61246993612793   -2.28236170791007
H         6.00312289825622    4.20205657555313   -1.22258997905940
H         4.47669261197150    5.07664038254624   -1.32810572980659
C         5.01270447155566    1.86140948636725   -0.16196803999386
H         4.82375809710790    1.33789921456428   -1.09657297884723
H         4.61444704305225    1.26426202000412    0.65530003039273
H         6.08762411297547    1.94543613292691   -0.03014984127225
H         3.87054876515020    9.75455426317112    5.43066680554915
H         2.91283816976557    8.54165374735544    7.62139743190381
H         2.15480553882572    6.06240876511872    6.92950069076237
H         6.70968627733046    3.92340709332140    0.85940323290514
H         2.55586603092576    4.12252340222538    1.74863305771058
H         2.02617780569233    6.91774044313828    2.04281781282326
H        -0.15995262980214    7.15124192579852    0.94394346101917
H        -2.07551669443135    5.78911776817100    1.69584095055431
H        -1.78786463969159    4.19616627732992    3.55893317109889
H         0.39633407837580    3.96630273972834    4.65845462104021
H         2.62538557690992    4.49987063201096    4.87552459525867

