55
CSD_code = DIZJEB | q = -1 | S = 0 | Stoichiometry = C20H29MoOS4(1-) | MND = 5
Mo       11.79503955038414   15.59697913367201   -2.89243036720834
S        13.05117584141654   14.47785016974705   -4.56882456439681
S        10.84496593185781   13.46751943352423   -2.59418246320769
S        11.48314690151199   17.29285503676831   -4.48951145538149
S         9.77963911722099   16.48207650903559   -1.99539419613100
O        12.94608166808715   15.97487229627160   -1.64225536789174
C        12.86796823604782   12.75976981486793   -4.23930592782438
C        11.92122153372073   12.32836109153378   -3.40000910233458
C        13.78952646627229   11.84481220692093   -4.99031107543053
H        14.46406042289368   12.43565729606436   -5.60382594740872
H        13.22311307765859   11.17024713281184   -5.63466174736238
H        14.37710040382299   11.23683329999433   -4.30021643774392
C        11.67933333460598   10.87974274725373   -3.09492147311091
H        10.85427378378406   10.79032861715078   -2.39328773507903
H        12.56917231791373   10.42388519070544   -2.65643079630424
H        11.43278323683317   10.32927086995520   -4.00441854441416
C        10.32787885649234   18.42057919899221   -3.78543972722365
C         9.60649741147762   18.07916408495363   -2.71238335031316
C        10.21201643708097   19.74614968117684   -4.47800989472447
H        10.91415691955678   19.78228362462620   -5.30673980122060
H        10.43164941528759   20.56337884510040   -3.78834205470976
H         9.20188085707843   19.89397847269677   -4.86384726667818
C         8.58631852537192   18.97908365786998   -2.07971150179445
H         8.09065985996544   18.45064607436722   -1.26998616233524
H         7.83924230769755   19.29231008299074   -2.81074249795175
H         9.06218806152295   19.87560428731021   -1.67779717727804
C        13.70700915675895   16.30368067974849   -0.62093988513663
C        14.36448509527096   15.29345686624556    0.10862879923771
C        15.17402347786590   15.66631234319204    1.16830921718372
H        15.69843278420631   14.91225799820811    1.73556145089790
C        15.32292175632524   16.99854454434752    1.51338813783195
H        15.96142802248691   17.27081968275314    2.34247006297019
C        14.65592175752577   17.98414692358201    0.80590062272608
H        14.77828471014502   19.01696898976973    1.09522413088243
C        13.83673319673035   17.66049716877989   -0.26196708089409
C        14.16668268824727   13.86612517121506   -0.34300310911277
H        13.12466471329837   13.77194693554397   -0.69080790557965
C        15.08576341922815   13.58375601157695   -1.53737198268233
H        14.85678029081481   14.26174956384982   -2.36149439702641
H        14.94058264593096   12.56477338611508   -1.88969618630164
H        16.12992534578134   13.71629427722978   -1.25399954996397
C        14.39317067219745   12.83784863978484    0.76160704884990
H        13.81639057194200   13.09266766927615    1.64819866961467
H        15.44665359857968   12.77647907596416    1.03018635350358
H        14.07517105180815   11.85685964905614    0.41480537366028
C        13.09289244624472   18.67649228191245   -1.09529442595203
H        12.13064196225820   18.22413375024379   -1.38573466684804
C        13.88713293877450   18.95017115670333   -2.37798786224323
H        13.34108894307400   19.63932524328296   -3.01807123138893
H        14.03705628063334   18.02332525357666   -2.93543647480115
H        14.85999945900797   19.37928207237364   -2.13803771450089
C        12.79455937693481   19.97838960045665   -0.35744973528778
H        12.31251733347498   19.77686574131583    0.59693386232672
H        12.12439751619321   20.58911010324670   -0.95902258326786
H        13.70479831269829   20.54938036429068   -0.18121230321286

