66
CSD_code = DIZKEC | q = 0 | S = 0 | Stoichiometry = C17H34B10ClOP2Rh | MND = 9
Rh        3.27894855597295    2.69102429213698    6.01799713929135
P         1.57405852057394    1.21296395475064    5.37061186041520
P         4.96394931738857    1.17691291312990    5.36404557389467
Cl        3.39667754729986    2.86990895767609   10.03823379720812
C        -0.07456717195361    1.36774351763388    6.18745438945354
C         0.99888082694663    1.24869501841122    3.62178301657673
C         1.82652449429151   -0.57538974629622    5.67819229420409
C         1.87041535259277   -1.54967807316470    4.68973991237131
C         2.05706849091700   -2.88046066316337    5.02463521729940
C         2.20250120584106   -3.25369186366066    6.34858772151030
C         2.17940550122105   -2.28702234659933    7.34129600596905
C         2.00351174532341   -0.95996223098892    7.00529193065383
C         4.89292381475857    0.61253805096273    3.61230100256187
C         6.73937828101351    1.68071799406803    5.42119482083600
C         5.15718986364301   -0.39146371115224    6.29307451382542
C         5.21675243027242   -1.65298634486310    5.71742749090400
C         5.39774053819984   -2.77430452343382    6.50897251142556
C         5.52107567092583   -2.65009183449296    7.88123419409704
C         5.45907237624154   -1.39510156084654    8.46540653780816
C         5.27621417865652   -0.27711049475781    7.67566823087570
B         3.31452252087604    3.32030646645347    8.27500563855656
B         4.63338626211276    4.14092423236965    7.19482686473914
B         4.60423646116350    4.52975102031677    5.54042100632507
B         3.24446437348829    4.07500823684763    4.49303837183682
B         1.89340382823232    4.47548439271875    5.59412373949832
B         1.92710803609331    4.12072865370080    7.25752760831873
B         3.28616424336551    5.02214841092343    8.03491315985376
B         4.13084395032795    5.78798857319348    6.67604056404934
B         3.21816127617222    5.66561477368559    5.17524522669393
B         2.36278549024386    5.76243454518871    6.70694836067805
O         3.23180616517232    3.67550209496393    3.18792309043561
C         3.16759832740397    4.55735148772382    2.09612200705877
H        -0.47447559616127    2.35732381705772    5.98100195268994
H         0.03387659044258    1.25712322942977    7.26300787516299
H        -0.76015950343900    0.60717863451447    5.81588839438831
H         1.83412403241940    1.08543559947811    2.94683450970901
H         0.61309780424975    2.24797606768384    3.43484782707738
H         0.21327932982156    0.51724005085668    3.43977489843548
H         1.75227469960554   -1.27901391769696    3.65085273680531
H         2.08419973779576   -3.62974360181198    4.24616353979980
H         2.33863111343127   -4.29316407787595    6.60716246250241
H         2.30418050668033   -2.57065548678243    8.37560650474187
H         2.00236352012515   -0.20342807775886    7.77822899502195
H         4.02355722238282   -0.02428709019254    3.46806285476484
H         5.79671313671042    0.08221617282333    3.31786355693028
H         4.77539132747181    1.50210675556236    2.99690790647805
H         7.38156942762727    0.84814032597900    5.13673483058398
H         6.99296450145829    2.00381854670411    6.42726498960877
H         6.89288309897178    2.51445547216705    4.74167093364611
H         5.11843092834797   -1.77406107469675    4.64995658664375
H         5.44413064307757   -3.75078772320427    6.04870621744078
H         5.66319471173416   -3.52808182650163    8.49404145841282
H         5.55172089886542   -1.28984962171841    9.53628831410743
H         5.22214222443050    0.70245623004964    8.13084430744239
H         3.26243042196494    2.17493084866325    7.74016006424107
H         5.67712106118185    3.82518975755396    7.65836842376252
H         5.60436945685763    4.49207682199104    4.90702496838531
H         0.86963419041267    4.38805019181480    4.99966092850299
H         0.91438636598528    3.77674958897045    7.76304943920561
H         3.30464354559181    5.57852540170957    9.07713890057285
H         4.81549259715529    6.72648234253904    6.87858868352239
H         3.18653531750419    6.55233865708509    4.39341347433772
H         1.65676107782899    6.67972799420976    6.93315851078053
H         3.14443496599831    3.96268033255384    1.18058159720921
H         4.04052933126758    5.21732561586080    2.07808079418447
H         2.26716883736087    5.17703984949526    2.14897876366017

