39
CSD_code = DIZLUT | q = -1 | S = 0 | Stoichiometry = C15H17MoOS5(1-) | MND = 6
Mo        2.02964590160942   11.38085460916018    5.46824542476615
S         4.23303487851852   12.25174353617790    5.66625113830047
S         2.85190346881409    9.95602017461800    7.26144430081895
S         0.92522668516425    9.51417069303537    4.48481978781146
S         2.35906193275232   11.98566018371405    3.17210089373177
S         1.12391686471520   13.72391550170007    5.46728421532549
O        -0.19604444620595   10.91428199336481    7.57220378776327
C         0.62960795573073   11.10863459158281    6.79387710913597
C         5.03726632447811   11.50076781334687    7.01212030089363
C         4.42719394571063   10.53758054863517    7.72908966159445
C         6.42417817000582   11.99021060925684    7.30980970660356
H         6.71637566575061   12.72630033377976    6.56584100470958
H         7.13654702404559   11.16456515644064    7.29510648259208
H         6.46157245537209   12.45286096139704    8.29699470869833
C         5.06028323431051    9.86354233633717    8.91055940458275
H         4.37137801687119    9.12885428539114    9.31745705001920
H         5.30070905832604   10.59378739963171    9.68399585257399
H         5.98346788500601    9.36069301868796    8.61956151635599
C         1.21050604087101    9.58248092908876    2.77189839063861
C         1.83315499859224   10.64107534043075    2.21585098049002
C         0.72085088130353    8.40920892444797    1.97443022526461
H         0.25511171380523    7.68822120964486    2.64081960956909
H         1.54814981106833    7.92623763066646    1.45242491939113
H        -0.00973451904394    8.72784132910769    1.22951009908963
C         2.10088185867499   10.73883652841326    0.74187564354582
H         2.61499774503197   11.67201993803596    0.52843263234011
H         1.16605394010754   10.71236114092076    0.18030971114124
H         2.72100479386154    9.90616278353991    0.40728657441261
C         0.77047997073372   13.97883557615182    7.16198265123136
C        -0.40047709297871   14.63613511010612    7.53305220698981
H        -1.08166880040107   14.96067687065900    6.76042783577887
C        -0.68718239039047   14.84560901474509    8.86722607375009
H        -1.60653689406643   15.34309486538364    9.14627631887419
C         0.19077725082206   14.41242828137923    9.84838729875294
H        -0.04074904441029   14.56876524851015   10.89299016982103
C         1.36889937104532   13.78147345749232    9.48281573412104
H         2.06390031707982   13.44939816430075   10.24192069786325
C         1.66572475160138   13.57215806282077    8.15030543039407
H         2.59873027571772   13.09653584789799    7.86531445026459

