92
CSD_code = DIZMEE | q = -1 | S = 0 | Stoichiometry = C43H43MoS5(1-) | MND = 5
Mo        4.01063723446521    4.55236789329397    6.05493235098622
S         4.93892330893746    3.29649232445901    7.77572118945802
S         6.18843686827258    5.41553759573646    5.87261722901217
S         3.29246382983341    6.77979621068310    5.80222111966481
S         1.94504807064733    4.31720147502943    7.13286475234120
S         3.91665648759742    3.12937296470754    4.23056270878190
C         6.68090813886742    3.48682602805437    7.68723527409707
C         7.22267058876137    4.38838800065391    6.83626199745924
C         1.56362706226747    6.78505946515743    6.12189131244498
C         0.96536345381155    5.68847719273776    6.63913009465952
C         7.43773122833004    2.68041545171433    8.64337167855049
C         7.10906973223260    1.33985137183622    8.83870074760474
H         6.29481388303854    0.91444517701833    8.27041681194314
C         7.81504782735685    0.56626027208592    9.73942695065960
H         7.55317414794615   -0.47451178337743    9.87455208584742
C         8.85485188292862    1.11867308117287   10.46861969572494
H         9.40831267655343    0.51274654823256   11.17296947933974
C         9.17506679309598    2.45628151502404   10.29786169489521
H         9.97547912120432    2.89785112473540   10.87602394016923
C         8.47333833726746    3.23335688280023    9.39755171152077
H         8.71694057087514    4.27897209947663    9.27826580380396
C         8.65787948891671    4.58715752104344    6.63849550751356
C         9.52034375018011    3.49813485828721    6.50955312565831
H         9.11927102025584    2.49608987347605    6.55416133433733
C        10.87341660864127    3.69714667381538    6.31819553989809
H        11.53149394051950    2.84438416947540    6.22120749661669
C        11.38978202152259    4.98122847386284    6.24580493590888
H        12.45058397558211    5.13324870656220    6.10001780219291
C        10.53760639370151    6.06803150462001    6.35135900914179
H        10.93250473105792    7.07294373597774    6.28602944026207
C         9.18299081107440    5.87443140412134    6.53991565531095
H         8.51276385666978    6.71771695200347    6.61701528730707
C         0.90174998520487    8.06380909893703    5.87785089221912
C         1.22391545560910    8.81953235765809    4.75168841794758
H         1.94902036020994    8.42820431621829    4.05450206825270
C         0.62205787122659   10.04250590050313    4.52553324994965
H         0.88004766656603   10.61269430165030    3.64347197818462
C        -0.31022531145927   10.53754556672134    5.42180484255223
H        -0.78217327019605   11.49428025388124    5.24491569502571
C        -0.62637042246436    9.80228086610557    6.55355495632381
H        -1.34242068584547   10.18936818629276    7.26580055608516
C        -0.02519653835346    8.58104278020731    6.78482630986414
H        -0.26200044918144    8.02125404155822    7.67769126848994
C        -0.47227802263295    5.52637805420350    6.82346003138757
C        -0.97794365614670    4.87336628642182    7.94769936923779
H        -0.28701199479965    4.51414332016906    8.69587363760486
C        -2.33789909226235    4.68658036106546    8.10007049331370
H        -2.71452759568645    4.18325263626808    8.98009004455731
C        -3.21881514811591    5.13713778784298    7.13053943986119
H        -4.28315904349152    4.98770536663660    7.24962986128347
C        -2.72537154122660    5.77285912516019    6.00193642298759
H        -3.40613382472825    6.11649262627100    5.23454000123566
C        -1.36772596307052    5.96564709631172    5.84619401042240
H        -0.98309341826025    6.44473871830870    4.95944327134229
C         2.51948559588729    4.06382392936598    3.62969822972570
C         2.74371050163121    5.20309013588288    2.84220780176957
C         1.64308637389207    5.86574049543903    2.32126169838072
H         1.80332220334733    6.73527717575248    1.70443604679950
C         0.34662504485957    5.43451906324372    2.56030278638713
C         0.15825618483019    4.28911651978178    3.31885229881577
H        -0.84789307057796    3.93738908050213    3.48905761765989
C         1.22293365579888    3.57829589092549    3.85075872044586
C         4.15065954991226    5.63101570362009    2.48596680320289
H         4.82006993525803    5.35752815447651    3.31409890918982
C         4.31191708144964    7.13262689952339    2.26816631511287
H         5.36839077609540    7.36566241005752    2.15235391289800
H         3.94192487651662    7.67562234227196    3.13402994353805
H         3.79077987585721    7.47303851025413    1.37488504093181
C         4.58859069609093    4.85117205452210    1.24145193956384
H         4.54420519566390    3.78121951098880    1.43420387771440
H         5.61014907124286    5.11273912367659    0.97363453634852
H         3.93403048893356    5.08061830317547    0.40108669586329
C        -0.84565827786530    6.11967651834535    1.93378418113688
H        -1.74683050557835    5.75759748788116    2.44268099374225
C        -0.93825101455184    5.71842974640393    0.45758795416748
H        -1.81493523626604    6.16718378328775   -0.00672899275324
H        -1.00845809483924    4.63681999674273    0.36283312643268
H        -0.05259265613652    6.05068438454251   -0.07961626032844
C        -0.80375705140490    7.64097308985777    2.06985199984205
H        -1.73510506814707    8.07432133641023    1.70810576955635
H         0.01273387628696    8.06401464645786    1.49018749879613
H        -0.66860767163024    7.93216395118327    3.10888581623418
C         1.01212520720806    2.26431610034115    4.56648264090892
H         1.78982791455703    2.16480380005806    5.33624236861529
C        -0.34028589801298    2.14517512749873    5.26337094904203
H        -0.51903399392337    3.00764556288117    5.89971404778402
H        -0.34646975843057    1.25427999616390    5.88825264277954
H        -1.15435396946949    2.05853209390218    4.54571855665407
C         1.19455565115133    1.12742036630725    3.55450002171685
H         2.18699976498079    1.17104640026250    3.11152762743741
H         0.45404887743497    1.20917259518158    2.75965587126375
H         1.07616066472962    0.16395390006837    4.04603943125845

