186
CSD_code = DIZNUX | q = 1 | S = 0 | Stoichiometry = C93H89NbO2P(1+) | MND = 5
Nb       -4.40311531058383   10.53620096132204    6.14240844250124
P        -5.00091435198179   13.84988441152689    5.50119950994419
O        -5.92157975576500   10.20759562412883    5.28185076673054
O        -3.02507213114528   10.72719039381002    7.26084079789902
C        -7.12607619631881    9.83485906976453    4.87126622409292
C        -7.29943444272138    9.26407935724846    3.59371828316278
C        -8.57253334860686    8.97739412046804    3.13405901174592
C        -9.70177923722762    9.17405758773245    3.91908387512333
C        -9.50511404756075    9.63038932538109    5.21618100395879
C        -8.25374343485715    9.96647237932857    5.70574871789161
C       -11.10993127785774    8.87117525535734    3.43670415492523
C       -11.14516118895493    8.41264505762567    1.97662064481048
C       -11.70257977929829    7.75576556181333    4.30940345986521
C       -11.96675645173426   10.13916580427347    3.56396099324076
C        -6.05310300139032    8.92007350661906    2.80798452088568
C        -5.26639386958921    7.81830947374352    3.50034651261589
C        -5.86656519041086    6.92122171611515    4.37552603823846
C        -5.14035518793978    5.86909110653074    4.90984379850968
C        -3.80789024837404    5.69938124216253    4.57818262387015
C        -3.20461646769709    6.57963752694541    3.69458521247230
C        -3.93251497639588    7.62451916264250    3.15400949864960
C        -6.31222292282323    8.46262211747427    1.39059208702208
C        -6.90401490029514    7.22885584091067    1.13903928031290
C        -7.12951356602983    6.80842342528280   -0.15871690384472
C        -6.75583884134528    7.60874129139360   -1.22566666534914
C        -6.14512819262581    8.82654599133146   -0.98541293749163
C        -5.92273669198511    9.24713565875278    0.31480260955519
C        -8.11424550872077   10.41469730059315    7.14627597398420
C        -8.91930842801103    9.49209979885846    8.04471648411399
C        -8.41639032315357    8.23263144241390    8.34511965510097
C        -9.12905128467777    7.35923373323345    9.14552644032704
C       -10.36103194485175    7.73394975121583    9.65479233777569
C       -10.87323671823746    8.98372332484612    9.35450952248644
C       -10.15820230397826    9.85799515880529    8.55366628891074
C        -8.49391681179803   11.86164355448840    7.37836495759482
C        -9.24654174494664   12.60276244165245    6.47575557307322
C        -9.53792852561723   13.93418394977359    6.72877770770436
C        -9.09399132950335   14.53826304422902    7.89108914814833
C        -8.36938115334948   13.79944894027215    8.81225783077924
C        -8.07315000553985   12.47318463427798    8.55821802784111
C        -2.26739430000860   10.40249491259597    8.30682205537655
C        -1.00449634338216    9.81629815527581    8.12746058424374
C        -0.27826678049062    9.38937762224234    9.22877465437336
C        -0.74979708217744    9.53900322270708   10.52429950095293
C        -1.98705135767642   10.15406624299270   10.68899478115615
C        -2.75081452910273   10.58200122473581    9.62023814200943
C         0.02235296448409    9.07324316992730   11.74638103244987
C         1.35004777260052    8.40469885743625   11.38088378345614
C         0.32057317630877   10.28449957776929   12.64147005686246
C        -0.83313519909591    8.05670401949917   12.51540082154106
C        -0.45174726761914    9.67374802233273    6.72723705324722
C         0.21393077491133    8.32555958504383    6.54801752245085
C        -0.56820181565155    7.23142493591776    6.20132523073856
C        -0.00186949463194    5.97844305044516    6.05593930209227
C         1.35701774770879    5.80392134582330    6.25614857763084
C         2.14381133691343    6.88968387644429    6.59889889735739
C         1.57656109956391    8.14403197719989    6.74391223108666
C         0.48907067621961   10.79971804028297    6.35313806479439
C         0.72523138020556   11.04744802195150    5.00482438236135
C         1.61451160552857   12.02940423717582    4.60914928885171
C         2.28741995028500   12.78056154797207    5.55866618929264
C         2.05588967971147   12.54585062451358    6.90316207211387
C         1.16101847925861   11.56397782812167    7.29832301499804
C        -4.07808767822884   11.28316003831923    9.83197273240052
C        -4.86708665026289   10.69225209035241   10.97633676100696
C        -4.65623813091306   11.08569250947372   12.29294793629046
C        -5.39004058699330   10.51711599537517   13.31924947097191
C        -6.35017688807621    9.55809153295658   13.04312076380625
C        -6.57537554320129    9.16917139387304   11.73375820359163
C        -5.83501438566802    9.73203479973940   10.70977614395801
C        -3.89737011237556   12.78544564852937    9.96690586700884
C        -4.96529356771745   13.56597283415778   10.40225449923261
C        -4.84908783310011   14.94084124785996   10.48673012474959
C        -3.66485737049545   15.56372750180998   10.12518327502070
C        -2.59791328581564   14.79787014884189    9.68917213560969
C        -2.71119201451672   13.41932625074176    9.61516776811749
C        -5.20306671359071   12.64782122599767    6.79218965643991
C        -5.96277595214732   15.33537000104268    5.90014641258177
C        -5.66816710292164   15.95650924368998    7.11139005422447
C        -6.38159357269025   17.07256622077512    7.50246001660039
C        -7.38731006353870   17.57190727209463    6.68882741756469
C        -7.67453478347372   16.95802762815112    5.48092301994243
C        -6.96515704458712   15.83886137728560    5.08078728537593
C        -5.61594192479539   13.23165276644228    3.91580799993323
C        -6.93226458812553   12.77332239208032    3.88904661801225
C        -7.48882156920828   12.34593069872069    2.69798466563048
C        -6.73978876996991   12.38607849685779    1.53189665082702
C        -5.42969306368825   12.83963536035547    1.55884190660695
C        -4.85961678034924   13.26204205526272    2.74818695067453
C        -3.28773963304132   14.39651198394622    5.34562804585439
C        -3.02441216250028   15.49998010126339    4.53430133126544
C        -1.73083211951756   15.97253566668410    4.41839501913750
C        -0.70414027499638   15.35682132876225    5.11916792822590
C        -0.96878126513993   14.27076595742290    5.93774618921134
C        -2.25916964623879   13.78325977865915    6.05287865662564
C        -4.53845076850402    8.46110686906849    7.06865573491745
C        -3.06338078856972   10.65255470353755    4.32514385825947
H        -8.67084857458524    8.57762937154060    2.13963272192592
H       -10.34567957335616    9.72462731581292    5.88632727513337
H       -12.17616403335713    8.23699574572618    1.67868133794695
H       -10.72867004272429    9.16926008116725    1.31510457986699
H       -10.59664508386926    7.48355169953777    1.84249508199968
H       -12.70675839450415    7.51221311599307    3.97123694758915
H       -11.75670825029909    8.05254676121064    5.35343601004522
H       -11.08973529296085    6.85958768398287    4.24157092459764
H       -12.97750762345862    9.94114065475628    3.21604722182785
H       -12.02545044933126   10.47876387702978    4.59451640613520
H       -11.54860877762513   10.94165396962639    2.95868124597799
H        -5.42429431239388    9.82060090255853    2.76899174756273
H        -6.91091566449917    7.03357725091103    4.63363558638801
H        -5.62130766795366    5.17544375687491    5.58393367578951
H        -3.24623088609460    4.87730008150108    4.99551670632166
H        -2.16964733810568    6.44287215212728    3.41590364347731
H        -3.47376532799101    8.27809729164501    2.42442498934407
H        -7.18116506959504    6.59208200961812    1.96655733691307
H        -7.59364539804468    5.85037625576145   -0.33887681418700
H        -6.93074574920402    7.27949904050291   -2.23842487079754
H        -5.83584722000768    9.44927330685874   -1.81203029958934
H        -5.43235229046496   10.19341369661834    0.49583092336212
H        -7.05203089878626   10.29785438181687    7.43134933017307
H        -7.45738268745400    7.93259969624215    7.94544476045695
H        -8.72202832624285    6.38494669236983    9.37247903060303
H       -10.91896596103449    7.05488497809394   10.28122402919227
H       -11.83468725900227    9.28242002143624    9.74462603135047
H       -10.56842678232860   10.83275769107835    8.33114034864973
H        -9.61949150790547   12.13625945665875    5.57519643211546
H       -10.12076548327806   14.49739085491599    6.01506602357061
H        -9.32225987330317   15.57497560036680    8.08510338352858
H        -8.03759964989682   14.25871133210749    9.73076515863157
H        -7.51447982800745   11.89265433255315    9.28040753518491
H         0.67407817482332    8.92140101796828    9.04430579713457
H        -2.38230979963604   10.29756318130466   11.68122006830474
H         1.85161844871710    8.07832207861048   12.28894083903882
H         2.01133540347429    9.09738561417156   10.86534618267551
H         1.18932469512314    7.53095202919386   10.75353029811414
H         0.88612785561568    9.97097387332126   13.51547979064870
H        -0.59427082305004   10.76145669990625   12.98210326141847
H         0.90884073843269   11.02107571426531   12.09785538462380
H        -0.29036311096267    7.69703791623529   13.38614875852051
H        -1.76735465010594    8.49608084663108   12.85454978102296
H        -1.06727167178452    7.20579748027079   11.87930410315881
H        -1.30598535412454    9.70655102745789    6.03787303980303
H        -1.63074486964033    7.36688372718290    6.04150550182948
H        -0.62086399294374    5.13624319305616    5.78414216677452
H         1.80110106425649    4.82672251799090    6.14228276246110
H         3.20469773094091    6.76128642984552    6.75350776552931
H         2.20134446712829    8.98748438451111    7.00093321552265
H         0.21892905801333   10.45008514526346    4.25945340187739
H         1.79102897711534   12.20312654402624    3.55795939561975
H         2.99107422967577   13.54006125034856    5.25298254867246
H         2.57802631649267   13.12488316843379    7.65113218350512
H         0.99176457853427   11.39026737280552    8.35107221588903
H        -4.68212900965843   11.10989957748686    8.92120154324181
H        -3.92827983278166   11.85381836914463   12.51397213615621
H        -5.21486281458847   10.82867590005636   14.33814323903557
H        -6.92461068544848    9.12071744994141   13.84523482234086
H        -7.33189885953782    8.43316600696685   11.50487006587284
H        -6.01605163191571    9.42320609620899    9.68740238398319
H        -5.88955242050654   13.08729824591001   10.68954193706814
H        -5.68413368947216   15.52921140616380   10.83718797643754
H        -3.57146359829247   16.63740538438985   10.19053280252727
H        -1.66888374250410   15.27258620000612    9.40964940276826
H        -1.86220036402943   12.83580081854523    9.28924393580700
H        -4.70055033993479   13.07681916577047    7.66995007205953
H        -6.27902088912852   12.63271905913705    7.00679486122933
H        -4.87852342714244   15.56502324674780    7.73940572807260
H        -6.15317914049044   17.55343345980019    8.44100517548650
H        -7.94540852652937   18.44330743489202    6.99511518101396
H        -8.45296520474948   17.35205500854343    4.84558815652833
H        -7.18784003763632   15.36380704772889    4.13604666221092
H        -7.51529958139038   12.77168899698064    4.80098475757307
H        -8.50582853036542   11.98617055326364    2.67735623048808
H        -7.18050357962450   12.06376729599005    0.60120914221757
H        -4.84905122768601   12.87086245725079    0.64874094587171
H        -3.83850087936238   13.61795114263639    2.77000165689886
H        -3.83729429085836   15.98176222077744    4.00633374292767
H        -1.52324914045844   16.82307029295544    3.78738179623614
H         0.30523762758657   15.72757765185684    5.03139836975006
H        -0.16848177777784   13.79916084753506    6.48617341828473
H        -2.46242718873373   12.93392561344390    6.69201264870877
H        -2.56318494131935    9.70453405266844    4.11674877605545
H        -2.29159421605637   11.41406202108796    4.47269212420346
H        -3.62526467146086   10.92834552672318    3.43048254604610
H        -3.83083759140728    7.82460113447399    6.52664515060343
H        -4.25266032007750    8.43717936094771    8.12468759554003
H        -5.52185040913074    7.99931541946848    6.96566226657038

