94
CSD_code = DIZPEK | q = 0 | S = 0 | Stoichiometry = C44H45P3RuSi | MND = 7
Ru       11.32015426832250    8.70356570113664    8.64587273321626
P         9.37569397178620    9.24967604629471    9.65927118166024
P        10.27444463568706    7.98259874657147    6.77672640791025
P        11.35777569195279    6.63872179090927    9.56385528742275
Si        8.44347495311956    6.51538424845415    8.70986405063137
C        12.96213788070553    9.94469862808143    8.61114384084014
C        11.95103340997520   10.73048548114586    7.98269868650842
H        12.07911663401433   10.94528704190367    6.92109015172729
H        11.57693848382316   11.59576369985707    8.53378573296812
C        13.39830803739656    8.81165271058789    7.86233270057653
H        14.18415162263510    8.19804134576051    8.30442554945864
H        13.54033103806690    8.94838106859419    6.78825288684754
C        12.76534309208281    9.70854739875625   10.00410763231171
H        12.44829321232125   10.55751166154681   10.61102756349267
H        13.50901214088367    9.09390177737335   10.51565581692004
C         6.93269561610766    5.36404311132043    8.74247180389450
H         7.21195843756381    4.34898943753989    8.49285479874755
H         6.18307169790842    5.68563781474630    8.03167767659590
H         6.47520010640786    5.35011254611565    9.72282170606935
C         7.90792057923744    8.31296926725571    9.05728983766538
H         7.61671357096658    8.76796263734475    8.10755687505635
H         7.07993483217875    8.39469466222515    9.76162901192641
C         9.28353536735405    6.44567187473177    6.99850837729016
H         9.99418869059321    5.61576971403750    7.00419823792406
H         8.58407900891993    6.31119982532822    6.17328957672448
C         9.70377977673481    5.98159289359253   10.03876243168735
H         9.43256545309274    6.47083505125313   10.97733543732237
H         9.74424049638920    4.90367901610635   10.19622891506195
C         8.73151360848080   10.96930621144726    9.68179674191242
C         7.56938043488458   11.41827867417076    9.06703520028095
H         6.93792549348544   10.73855426752436    8.51435510719775
C         7.20815999556270   12.75229703371750    9.15223419754990
H         6.30085046248096   13.08996659347277    8.67099617358239
C         7.99771256563761   13.65177332298930    9.84677996379250
H         7.71216022584770   14.69197970259112    9.90584878596835
C         9.15459386365674   13.21129824036603   10.47011334300804
H         9.77283163833021   13.90675518001384   11.01987504830728
C         9.51377262895694   11.88093768512148   10.38775815779221
H        10.40885997731838   11.52383515136152   10.88168059730755
C         9.19827011902450    9.03882862581673   11.47648948894349
C         7.99420175182763    9.30166561533795   12.12537360935766
H         7.12797173885844    9.61492969878728   11.55839982114921
C         7.90579597726604    9.18624839702558   13.49924528014578
H         6.96691297613652    9.38698920127068   13.99551961596402
C         9.01869981900500    8.82595519811712   14.24420126551830
H         8.94437574891534    8.74117622280342   15.31868095662250
C        10.22496994781594    8.58969908485629   13.60885445462689
H        11.10134471875055    8.32187911399661   14.18168625364185
C        10.31112619752558    8.69912232792247   12.23189649844812
H        11.25018059689936    8.52253556268769   11.72289983764400
C         9.05100767675141    9.06770433699728    5.93726312350876
C         8.32784643153971    8.63067374805221    4.83007141771116
H         8.45716351818487    7.62298641242810    4.45885275057840
C         7.45851121032105    9.48909831560469    4.18498762157285
H         6.89695874478655    9.14141809533474    3.32945060896868
C         7.31332815301970   10.79708382852822    4.62234303053336
H         6.63566231328352   11.46507646834060    4.11070538578196
C         8.04878066086821   11.24610216112154    5.70495432268683
H         7.95304307554430   12.26738186559241    6.04514528551477
C         8.91394171377035   10.38352908778781    6.35514640147482
H         9.49883836232331   10.72366980053233    7.20018843329587
C        11.18204729690728    7.61638246441710    5.22285446393895
C        11.78552645609762    8.71827155266318    4.62031633777517
H        11.66440704384092    9.69188690663611    5.07856758301291
C        12.51414707599598    8.58084575660540    3.45592616639478
H        12.97744041679012    9.44495796695187    3.00118228227566
C        12.64803403718453    7.33145016191992    2.87109952696505
H        13.21868406082828    7.21703551450577    1.96099140738079
C        12.04392377743913    6.23243891036925    3.45596636180079
H        12.13939346172576    5.25726869420085    2.99907392844367
C        11.31472245302340    6.36932972868221    4.62511024038116
H        10.85750652425153    5.49469834602379    5.06351209339343
C        12.03011535622950    5.22219374576155    8.60476764930304
C        12.65862712817552    5.46214992702648    7.39149209421468
H        12.69735260398183    6.47775473182435    7.01846495523332
C        13.22714795342729    4.42569237958517    6.67186157150941
H        13.71085884656306    4.63038207724654    5.72739408124168
C        13.17505466683433    3.13445091087714    7.16641493737852
H        13.61591017304280    2.32062153217597    6.60914529868468
C        12.56684923808069    2.88791953992218    8.38813319660185
H        12.53954099257264    1.88236182887219    8.78334971463149
C        12.00545922655074    3.92416562953057    9.10912966854098
H        11.56281170848013    3.72454670673135   10.07564675479382
C        12.35322185250622    6.24820987845604   11.05682408158421
C        13.73305711775868    6.33629096740950   10.88397763982618
H        14.11837943330606    6.59476069655800    9.90553404628723
C        14.59763134417762    6.08844109136554   11.93119270277203
H        15.66547032414064    6.16235973672501   11.78161839632665
C        14.09174651475265    5.74312330153173   13.17449748203909
H        14.76300513435165    5.55039176613483   13.99870080290561
C        12.72335949073404    5.64235781155017   13.35388308706645
H        12.32468845907125    5.36566358813543   14.31997334798096
C        11.85556733540088    5.89297342411599   12.30432357931192
H        10.79192744248856    5.81191229520241   12.47271083115169

