66
CSD_code = DIZQIM | q = -1 | S = 0 | Stoichiometry = C24H35MoOS4Se(1-) | MND = 6
Mo       16.30705024110933    5.27542085592715    2.20013525090117
S        14.83110014876349    5.35177938000627    4.17148292297834
S        17.01454096954422    3.28741513870451    3.30754721730789
S        15.97231400548723    7.61545855480791    2.03663236417855
S        18.62117699790902    5.85417207449915    2.10771909076716
Se       16.65323755600205    4.56822663821214   -0.14064291108175
O        13.28507112971142    4.79807657751804    1.63904290119428
C        14.41250427468182    4.94480432346237    1.85772101942750
C        14.78227732813759    3.70376474837312    4.74442989849526
C        15.72423706307014    2.81635797958501    4.37357534969178
C        17.55287099489603    8.32354661141235    1.85257225751067
C        18.67112818512352    7.57314275203606    1.87313727184137
C        13.66494888775859    3.36836476080188    5.68730673924627
H        13.04132984419770    4.24564073572814    5.83494907362166
H        14.05607837227314    3.04370641983967    6.65266043645480
H        13.05265301405525    2.56267892696113    5.28048498603525
C        15.76347717165604    1.40938238915079    4.89284992207282
H        16.64291858518789    0.90409133872430    4.50316199473251
H        14.87259579497368    0.86380985823212    4.58009838231890
H        15.80120020402115    1.40020294266865    5.98303331289966
C        17.57752228801171    9.81326797625074    1.67237044796649
H        16.56147989433059   10.19836600454854    1.70200575337398
H        18.02833328887221   10.07595962809312    0.71409609905621
H        18.16059191225895   10.28947464843552    2.46253083610483
C        20.04058814402226    8.16891801442480    1.71916772793504
H        20.78963323525160    7.38713200709091    1.81414647645499
H        20.22064983094769    8.92938711354258    2.48065435263035
H        20.14355444278853    8.63895317113614    0.73998958659225
C        14.90940411151709    4.03876745613117   -0.80929934176304
C        14.08423423760891    5.00322761034259   -1.40394351094806
C        12.85313040328605    4.61041579152087   -1.90147495564202
H        12.21866026147801    5.34731297237923   -2.36885368471580
C        12.40695404709581    3.30118393974300   -1.80236085737971
C        13.22935653433776    2.37367265186275   -1.18880902589761
H        12.88222769327112    1.35438211082273   -1.08504941221747
C        14.48146905524447    2.71423672466077   -0.69478735743034
C        14.52721370913630    6.44348759963787   -1.50818078303670
H        15.19560031023590    6.64965402214204   -0.65936602280504
C        15.32602934354703    6.63198755797571   -2.79916678481827
H        15.67940645308518    7.65787016392895   -2.88098116502370
H        14.70825160280822    6.40050791933771   -3.66619394118974
H        16.18697186261911    5.96444077670694   -2.79492414167895
C        13.37839967235636    7.44484394897815   -1.41831236033016
H        12.74486404281864    7.21011660021676   -0.56630463389868
H        12.77379123944041    7.44880016849072   -2.32418049671170
H        13.78147675784230    8.44581357127941   -1.27825988749117
C        11.04995373890600    2.89678739514333   -2.32890998271450
H        10.91067948837718    1.82768826096431   -2.12750263362325
C         9.94003287582726    3.66480250846796   -1.60838371559430
H        10.02924355538310    3.52863930161232   -0.53324324010641
H         8.96025304724971    3.31123769045089   -1.92738799001091
H        10.00896020240360    4.72854010530944   -1.82137477003945
C        10.96308700317767    3.10906361034391   -3.84181437982102
H        11.75079050679162    2.55329328803385   -4.34627035478007
H        11.07710792481666    4.16176909704668   -4.08821798326571
H         9.99968876582240    2.76920447934192   -4.21961565823004
C        15.30984388256169    1.65995233754723   -0.00185752408294
H        16.27767843762033    2.10465217783645    0.26396374888329
C        14.62767443528300    1.22600395669076    1.29530524612809
H        15.25666700206346    0.51751887041836    1.83039739404069
H        13.66392515618380    0.76048478982654    1.09576584978016
H        14.46555474894367    2.09320376667711    1.93416962612643
C        15.58197977669340    0.46363427867250   -0.91331570849025
H        16.25010469367265   -0.23754756790404   -0.41696081443790
H        16.05227688810179    0.79737345095966   -1.83566106345561
H        14.66119272730464   -0.05992495330917   -1.16379644489770

