155
CSD_code = DIZVEO | q = 0 | S = 0 | Stoichiometry = C52H74Br4N4NiO12P4S4 | MND = 6
Ni        6.36898803301549   11.14399051855673   11.73752022446640
Br       -1.35169897079021   11.79253165039402    8.23221528291365
Br        1.20308205693116   16.80239324437214   16.88443723892978
O         7.64185758112537   11.10854717616025   13.11271808433712
O         8.22912621970092   11.44882936731839   15.40544436517242
O         8.77679810189656   13.35313132659001   13.81491441628945
O         5.92925105015984   15.74635246827639   11.84145487750339
O         7.06597362822602   14.97757767027612    9.73702622893910
O         6.92253188242662   13.36477233191639   11.69521817052171
P         7.69966160898720   12.22999808393252   14.10928635411627
P         6.24087580747523   14.46990578660003   10.98968032612496
S         4.57441925470906   11.75708415902691   13.18535250000713
S         4.23311678504526   16.13878151627812    9.14029912493281
N         4.70958546913525   13.97530075715538   10.51723259007307
H         4.54574060488217   12.98060217856696   10.67141022498424
N         6.42389761235351   13.12436317278383   14.57442028985646
C         2.42747238901635   15.60633421561250   16.05982437403111
C         8.38792406216520   12.13861442125880   16.64481093847497
H         8.52994901634664   13.20424324551787   16.42733879044144
C         3.87515637605000   14.64102674071674    9.68653736177045
C         0.81777826911268   12.48614371855412    9.93829883147666
H         0.32938081407161   11.84203508287406   10.65277182879049
C         0.25487215434599   12.69987277527507    8.69033184028627
C         2.02142783945299   14.18934673657724    8.10640563379442
H         2.49135787831681   14.87065839182903    7.41379751815111
C         0.84602146170895   13.54898877635153    7.76898137192559
H         0.38961846469725   13.70774345020178    6.80410865068443
C         5.18755398625814   12.95020110416599   14.23096641027889
C         2.01206161965893   13.10127579419175   10.25447802691034
H         2.45379734080356   12.93130182852496   11.22460560376627
C         2.62539197442961   13.96104325003255    9.34177602249328
C         4.21318275026545   13.86015068189110   14.85918444645086
C         4.61256380403571   14.65826136896553   15.93310132820464
H         5.62969461922903   14.58616902680503   16.28404150914280
C         9.61929372385913   11.56904517378222   17.33949537103356
H        10.51728657157949   11.76850263473427   16.76203150425365
H         9.50788504990121   10.49284264600172   17.44633592125493
H         9.72829440073144   12.01807665467318   18.32261214121823
C         2.00759431942911   14.82828482589601   14.99340140067395
H         0.99353279647663   14.90444516912496   14.63200264880299
C         2.90128223729745   13.95830460674945   14.40126487188379
H         2.58670212002297   13.33782394508920   13.57822301216492
C         9.95712294388592   13.08355524940207   13.05153012180682
H         9.81527789859146   12.13677370108519   12.51579383356504
C         7.84039850185049   17.22992446251524   11.93101743386390
H         8.34653089275386   16.67613029473827   11.14604695729955
H         8.57981567369899   17.67202660161580   12.59375518062876
H         7.25399357023227   18.02075574632037   11.46938383796510
C         3.72531993407182   15.52631873588485   16.53808872404908
H         4.03621894067759   16.13875023594012   17.37063980974107
C         8.91407137533965   14.83507098274059    8.25919730030642
H         9.55742787160691   15.27590709651877    9.01602418023982
H         8.49625362277906   15.63234504759479    7.64975430504946
H         9.50767276048934   14.17563598923837    7.63292012659399
C         7.14120760929978   11.95034737293737   17.50041079923122
H         6.26492251373835   12.28272317061796   16.95111904147944
H         7.22892828503732   12.52651204350443   18.41767084633980
H         7.02165044788575   10.89865992799457   17.74812067618492
C         6.85132297692688   13.43255853343247    7.88236129363643
H         6.12165446539995   12.78673288713627    8.36771019773903
H         7.42695670953001   12.83603649727028    7.17903895083122
H         6.32634866066507   14.21911119446443    7.34375688203713
C         6.92101534751290   16.30980585982069   12.71985838361424
H         7.48819282330498   15.48332692440730   13.16523323683476
C        11.14234363436793   12.98856302947299   14.00317499976841
H        11.02765125967715   12.12807834258114   14.65643539835477
H        11.19299897927031   13.88829945088346   14.61235873532123
H        12.06818365177299   12.89339060451081   13.44287562189355
C         7.78639093143896   14.04848713280983    8.91231705550500
H         8.19238502995879   13.25549977375082    9.55387496563700
C        10.13903196585716   14.21332180158230   12.04730809986583
H         9.23748336382028   14.30401163694966   11.45039844337776
H        10.98202556479947   13.99683499412759   11.39665970843538
H        10.31477666952512   15.15070324772603   12.56952276658525
C         6.16004020012709   17.06597771605890   13.79850654933955
H         5.49900777006744   16.38869776940376   14.33120005114865
H         5.56357650263715   17.85228871923286   13.34255748500737
H         6.85940518602209   17.50814508167122   14.50230722953397
Br       14.08975979470641   10.49555118972630   15.24260796712550
Br       11.53483063724506    5.48563657298094    6.59044903999956
O         5.09611679175902   11.17944440215472   10.36232606268842
O         4.50880069182865   10.83918180446454    8.06961141234328
O         3.96118116978805    8.93485639316990    9.66013123282311
O         6.80879258932691    6.54163734664674   11.63354117006280
O         5.67207798608419    7.31037394958494   13.73798637789029
O         5.81546858847387    8.92320014583922   11.77980948945280
P         5.03830080978630   10.05800261000189    9.36574759509925
P         6.49715496170955    7.81807297714170   12.48532825408027
S         8.16355859273137   10.53087583287599   10.28969021353093
S         8.50497658262318    6.14922433220183   14.33467845690355
N         8.02844043283002    8.31270149103386   12.95776295243648
H         8.19226859032079    9.30740192950656   12.80358053969738
N         6.31406651697115    9.16366502537850    8.90056883819943
C        10.31048828413888    6.68177224240741    7.41502235377077
C         4.34997924378741   10.14940852169186    6.83024073875023
H         4.20796165600853    9.08377721225880    7.04770528658812
C         8.86289875570854    7.64698701490803   13.78843864696629
C        11.92023518558228    9.80191927503903   13.53659283785453
H        12.40860808794508   10.44602810040489   12.82210308039432
C        12.48315919893300    9.58822930931047   14.78455861955709
C        10.71666121155311    8.09870073458336   15.36852138965467
H        10.24674766351218    7.41740243255832   16.06115374492827
C        11.89205703046746    8.73909218834553   15.70591985202291
H        12.34848051140929    8.58035739941865   16.67078615248361
C         7.55041484356035    9.33782278542865    9.24401007237860
C        10.72596328964960    9.18675248448899   13.22043892513252
H        10.28419724953132    9.35671954539816   12.25032384105334
C        10.11266470610728    8.32698612526943   14.13316387667992
C         8.52476919856064    8.42785504564939    8.61579344949293
C         8.12536678651568    7.62975276441124    7.54187940540941
H         7.10823166887725    7.70185595881743    7.19095376534303
C         3.11859293804039   10.71898170644435    6.13558981391321
H         2.22061351844828   10.51951680160991    6.71307218661799
H         3.22999765902736   11.79518543670053    6.02875790142080
H         3.00957137378520   10.26996014642753    5.15247082394710
C        10.73037085599368    7.45976548513513    8.48148671264882
H        11.74444907238968    7.38362705467185    8.84284085568352
C         9.83668137277675    8.32970239525792    9.07368313866404
H        10.15129141319461    8.95021454567583    9.89668895192355
C         2.78087507916642    9.20441378688226   10.42355207776011
H         2.92273355200618   10.15118274541816   10.95930717145138
C         4.89765614431099    5.05804931572594   11.54397431224157
H         4.39151754712771    5.61183845920827   12.32894414536382
H         4.15824390361945    4.61594231771589   10.88123427292445
H         5.48406622042116    4.26722202230345   12.00560824883179
C         9.01261334131034    6.76174206163207    6.93682899767772
H         8.70169302377148    6.14930672233194    6.10428878265714
C         3.82398933077886    7.45284172278122   15.21582938049837
H         3.18063024666453    7.01201630989737   14.45899847884605
H         4.24181525866697    6.65555847863054   15.82525483134572
H         3.23038825244530    8.11226147888907   15.84212276762748
C         5.59667753220853   10.33768482422573    5.97461629802193
H         6.47297426111034   10.00529665678328    6.52388228092998
H         5.50893352098032    9.76153567703014    5.05734860913158
H         5.71623318714060   11.38937566384481    5.72692073604000
C         5.88673373809336    8.85535666319561   15.59267940645965
H         6.61639170250957    9.50120151932234   15.10734037051043
H         5.31110030914151    9.45185518739656   16.29602181565700
H         6.41172005162393    8.06879553710338   16.13125972550050
C         5.81703322533377    5.97817689223060   10.75513665402235
H         5.24984910020137    6.80465188292147   10.30976265551400
C         1.59562888344498    9.29942906368069    9.47194131223877
H         1.71030967139815   10.15992301823665    8.81869127953464
H         1.54494898088151    8.39970214550217    8.86274536414720
H         0.66980576683339    9.39460108037316   10.03226886521111
C         4.95166148338373    8.23944464359061   14.56271727091952
H         4.54565871155384    9.03244225903682   13.92117708611042
C         2.59899026296711    8.07462436011799   11.42775229160598
H         3.50055160141929    7.98392490419990   12.02464097266604
H         1.75600946138813    8.29109362902335   12.07842311302694
H         2.42323802327445    7.13725437615163   10.90551951682748
C         6.57801449638854    5.22201127496098    9.67648833441457
H         7.23904724939220    5.89929462299692    9.14379954569270
H         7.17447859791750    4.43570013289305   10.13243668092416
H         5.87865347028594    4.77984431919964    8.97268343572384

