58
CSD_code = DIZWUE | q = 0 | S = 0 | Stoichiometry = C28H23NO4SiW | MND = 5
W         1.45363643634284    0.54003841468599    4.06488591251593
Si        3.29550300222565    1.61491057612959    1.72321039577012
C         2.53659984281390    2.27250040657342    3.34682520595390
N         2.78459789710785    3.46803633384927    3.77802902000554
C         2.34629093928497    3.92287709806401    5.08744764031579
C         3.56360252521882    4.07051830410849    6.00053782272914
C         4.55902500039266    5.05705550777289    5.39605727096299
C         4.91712880990915    4.62669935982930    3.97592568710605
C         3.64206739383145    4.45963232654830    3.14921131420015
C         0.28465486545291    1.30840299061531    5.42424695306688
O        -0.43707257044483    1.69680059593050    6.23637853725622
C         2.85931823947767    0.29519720265621    5.45004372445893
O         3.65011380275610    0.22943415050751    6.27787527886759
C         0.03283604994344    0.87369683159285    2.70788292679800
O        -0.81206649462915    1.09911778938991    1.96924936701697
C         0.59038624630051   -1.19186841842251    4.51792367933295
O         0.07093865885181   -2.17659777811108    4.78926767358600
C         2.57593369938522    2.38765400788516    0.15497832623804
C         1.50526482990265    3.27281810664624    0.22337814861718
C         0.95800423251740    3.81445921983365   -0.92559982081763
C         1.47705761738666    3.47810422059016   -2.16452512364405
C         2.54235837638222    2.59663688154744   -2.24854076297460
C         3.08423947079247    2.05582329720882   -1.09696532795486
C         2.78039477829005   -0.20941227802646    1.89714755912509
C         1.82342937592711   -0.80743183471829    1.06973425936650
C         1.47959814183428   -2.13549641562851    1.22177790269161
C         2.09016092283297   -2.90554015229785    2.20502799371985
C         3.05649608489994   -2.34623678225540    3.01750860549404
C         3.39642462010759   -1.00137011283299    2.87522983344556
C         5.18509022549953    1.70224378734916    1.74101144938447
C         6.00918556735186    1.01146835536153    2.58560243989131
C         7.27022577527046    1.07028588060126    2.70267257976566
C         8.12312789705233    1.86229738007785    1.99493979853598
C         7.38361174752143    2.62684996467262    1.07516275527041
C         6.00058759047822    2.55275882943843    0.96006820736262
H         1.84172065072699    4.88830425644210    4.97805371440750
H         1.64595181837010    3.19147276605713    5.49390772113525
H         4.03527281292686    3.09319446114960    6.11745361545813
H         3.23830164620155    4.40913978389450    6.98413496122755
H         4.11501010770164    6.05529726960463    5.37225735425596
H         5.45912858183905    5.10573517314720    6.00975993887933
H         5.56446965088728    5.36537173797368    3.50155084567752
H         5.45157899914713    3.67438889972090    3.99732695760436
H         3.10242542220079    5.41206054848930    3.10894313046450
H         3.88136405424415    4.15367676415867    2.13091417260837
H         1.09020354572174    3.53256253424475    1.18777543045298
H         0.12294465567383    4.49612524499940   -0.85533284755450
H         1.05007643295614    3.89847127660061   -3.06326146404802
H         2.94752373331006    2.32791358951301   -3.21353649420794
H         3.91123248378865    1.36272809195549   -1.16643589888823
H         1.36626431701005   -0.22005796053947    0.28314902538486
H         0.73923515404183   -2.57959565493246    0.57237895732020
H         1.82077002177760   -3.94499975607323    2.31978044100983
H         3.55930234277906   -2.95134269507521    3.75912087946758
H         4.25659660704622   -0.61374404238559    3.41552992477389
H         9.19430421522759    1.92419771277040    2.09071070919079
H         7.92287183074239    3.30571852497548    0.43093387167993
H         5.50509931739582    3.17421742614222    0.22767782023817

