57
CSD_code = DIZYAN | q = 0 | S = 0 | Stoichiometry = C27H24N3PPdS | MND = 4
C         6.66590036760367    1.42070178034180    2.17342048540773
C         6.26524635176973    2.33689926554274    1.21390601748337
H         6.93321706091704    3.13414950664468    0.90215229867782
C         5.00969414754204    2.25730017032389    0.62212914355200
H         4.72308545299722    2.98380432233543   -0.12551165705737
C         4.12802151116888    1.25565099145971    0.98638063004587
H         3.15049061782419    1.19876294562433    0.52901692869937
C         4.50193585351388    0.32113832910324    1.93514608408720
H         3.81370393522669   -0.46283606199646    2.21594916601669
C         5.76310006330198    0.39618395566484    2.52478994127636
C         6.24007600923965   -0.56450049554833    3.50803091652732
C         5.41432171717340   -1.72667718998381    3.96672285479208
H         5.13603622993094   -2.34854860249983    3.11677350208385
H         4.50229959885057   -1.37507764642868    4.44774290988656
H         5.98994191868682   -2.31856482579700    4.67395745510384
C         9.19394572982430   -0.82714433163340    5.24891790420113
C         9.75702522739553    3.03475598300044    0.78277487720000
C        10.44181538416231    4.04760235710412    0.11998841329209
H        10.71086013983446    4.95279341127000    0.64681901085854
C        10.80040365344949    3.87929951800448   -1.20533774837952
H        11.32623403822403    4.66737469146878   -1.72462840915748
C        10.49793623114380    2.69834231700773   -1.86502813395604
H        10.78284079229908    2.57260874447185   -2.89916807435346
C         9.84807525086887    1.67262247195863   -1.19688625874583
H         9.63292930704491    0.74551895883472   -1.70721510006697
C         9.48092585906797    1.83824095557875    0.12587611635803
H         8.97634512569016    1.03802406485279    0.67827561717166
C         8.13906035405124    4.48594468563053    2.83763504877863
C         8.03984926325172    5.65881151066083    2.10200010222795
H         8.67498615690528    5.81808018346374    1.24302603209873
C         7.10780619634230    6.61731285564589    2.46319193572133
H         7.02545424581375    7.52828795766396    1.88832028360915
C         6.28159258958544    6.41251214701523    3.55553592524725
H         5.55705382471288    7.16469392310095    3.83072139735393
C         6.37535234501587    5.24060572636204    4.29131280555523
H         5.72358825403868    5.07991455801705    5.13732937963521
C         7.29758851124691    4.27763032902912    3.93027871763962
H         7.37524807053869    3.33289805707914    4.48679965931573
C        10.84688285659421    3.71553792761319    3.25672076827811
C        11.96716185515282    2.90848322035892    3.07049847493163
H        11.86211324878003    1.98284277603720    2.51650725934316
C        13.18521141050001    3.27874185065998    3.60353030195798
H        14.05175285837959    2.65026768155899    3.46006710451246
C        13.29233062852592    4.45501837153691    4.33053917295046
H        14.24443615988480    4.74459327768958    4.75045009911128
C        12.17863106684593    5.25329745793861    4.52703679906348
H        12.26164293306731    6.16502787127332    5.10100076093268
C        10.95378221230597    4.88686413017682    3.99528045597190
H        10.08331606012130    5.50762700669010    4.15717856633952
N         7.43798505188142   -0.35501150086133    3.94160242955203
N         8.00513578696956   -1.17641736110798    4.84272355400201
N         9.84356373617688   -1.65005088002497    6.10480430336111
H         9.33137357041400   -2.40145598914537    6.53304653214314
H        10.67399766036711   -1.30404756447985    6.55196950906832
P         9.28742290051172    3.10704284547244    2.53774073569942
Pd        8.33298728074961    1.23751604776109    3.27933447271232
S        10.05018533650494    0.60290531047915    4.77342252190032

