109
CSD_code = DIZYAO | q = 0 | S = 0 | Stoichiometry = C52H32F16N8Ni | MND = 4
C         3.58832518318022    6.96090089128003    2.73538217818009
C         4.27446016975772    8.19027541482411    2.46367970412140
H         3.81190083276913    9.15649634397421    2.41394448744818
C         5.57130780920899    7.87271032786336    2.26159776678157
H         6.38324939439048    8.52843925327784    2.01622556388901
C         5.67919477835209    6.45473678841727    2.44761625783483
C         6.88965845424850    5.77545274417942    2.48856636643666
C         8.14836472937598    6.52629838966500    2.31206373548302
C         8.56645134833247    7.50940146333313    3.20497779326043
C         9.74258419509239    8.21680529607382    3.02798368281649
C        10.62014579095460    7.97898025138981    1.94972060420698
C        10.19042800120049    6.96597394448424    1.06689344792846
C         9.00090889229517    6.28050207514294    1.23848850207518
C        12.49315240611972    9.26389214764326    2.88069548390978
H        12.31064549278384    8.71311395604697    3.80073146859326
H        12.20696070418801   10.30862368047917    3.03400408872784
H        13.56103345546056    9.21999687905957    2.66670372208733
C        12.38110380440776    8.84459534873366    0.47502346565806
H        13.12091163881676    8.06883836998557    0.25655116371256
H        12.87397658089092    9.81656061451706    0.45291036819847
H        11.62275833225919    8.83341051469382   -0.30459497489352
N         4.45091753084470    5.90510258651785    2.68663267840766
N        11.78008008529309    8.66577756369619    1.77616495578234
F         8.67024839165563    5.34447418375057    0.33812844415679
F        10.96779287294170    6.60687840151317    0.02069223705791
F        10.01955137632691    9.19093577087657    3.92408625887142
F         7.81057109731356    7.79335897113888    4.27550892032394
Ni        3.99943350463853    3.99955975313282    2.74165535753038
C         6.96082380077000    4.41054227007382    2.74219530585261
C         8.19016672325484    3.72449443681262    3.01424420199829
H         9.15632351239432    4.18714264018528    3.06437543630148
C         7.87262572340767    2.42761359614674    3.21617808359408
H         8.52832140797057    1.61574163405519    3.46184064695113
C         6.45474683627446    2.31963932894036    3.02957349315608
C         5.77538856836541    1.10923824237307    2.98818071835895
C         6.52608059258944   -0.14949502901586    3.16487768984950
C         7.51019056957657   -0.56706293769141    2.27284382447464
C         8.21775860090390   -1.74302105241108    2.45023459773979
C         7.97907475633720   -2.62099904348491    3.52797136190804
C         6.96494388137360   -2.19189550890451    4.40980224734319
C         6.27936766443023   -1.00247967795791    4.23789919164424
C         9.26582656514939   -4.49311419742589    2.59780053607064
H         8.71587238564764   -4.31064400884035    1.67725565086152
H        10.31055237607090   -4.20630778503607    2.44560969085330
H         9.22231037333613   -5.56107153900038    2.81147854097354
C         8.84335328012873   -4.38235630462062    5.00298722579748
H         8.06743644423870   -5.12243767568331    5.21998073214875
H         9.81538535565337   -4.87504016257981    5.02617733419761
H         8.83094844302566   -3.62445441641907    5.78301413680809
N         5.90505139319111    3.54796921654025    2.79123372221467
N         8.66622618854729   -3.78065542019916    3.70193349029451
F         5.34236991532950   -0.67235243382409    5.13744109891705
F         6.60485630695568   -2.96971927891261    5.45532249352881
F         9.19292975870812   -2.01936236765671    1.55507352804349
F         7.79502267899689    0.18916971774607    1.20279366133907
C         1.03803657800043    3.58850608316011    2.74282141941621
C        -0.19122489063384    4.27447285839934    3.01543685490033
H        -1.15735461628995    3.81180159324520    3.06583779160197
C         0.12634413393674    5.57133597605819    3.21745217665538
H        -0.52927178605495    6.38318308516897    3.46341833000170
C         1.54417102945066    5.67935710016069    3.03052287005095
C         2.22348816035911    6.88978913218492    2.98941841770308
C         1.47260367469683    8.14846338094054    3.16588491869880
C         0.48926850801989    8.56608661627039    2.27302150952496
C        -0.21825723292862    9.74217308592357    2.44972460127706
C         0.01966219827140   10.62017405572029    3.52760945232397
C         1.03285447876303   10.19089048071670    4.41043246952626
C         1.71844674019653    9.00138914725342    4.23914689766160
C        -1.26553560033097   12.49263781526269    2.59599603805259
H        -0.71479686268905   12.30981674654764    1.67599442200659
H        -2.31024083096687   12.20625472351468    2.44286817369631
H        -1.22175645596304   13.56060967712974    2.80955479959451
C        -0.84578669207097   12.38177412310042    5.00165122411433
H        -0.06997694652922   13.12169119631221    5.21957273120406
H        -1.81774529252194   12.87466019942800    5.02371844300182
H        -0.83443829210535   11.62383125867636    5.78165778026198
N         2.09382083369361    4.45108489142108    2.79178587594501
N        -0.66726455201688   11.78008412430143    3.70078222436457
F         2.65464862303051    8.67116082907563    5.13948775744974
F         1.39203351960307   10.96866499358693    5.45630252091919
F        -1.19259404331518   10.01866731522604    1.55370568780077
F         0.20520596567431    7.80977349475188    1.20282835198222
C         4.41057155464989    1.03828252313694    2.73395158893497
C         3.72449801894054   -0.19092900721906    2.46138916515154
H         4.18712088468610   -1.15708172768419    2.41093030821670
C         2.42764408390593    0.12672269649536    2.25948418943480
H         1.61577691385444   -0.52888221543438    2.01354034691015
C         2.31967181162143    1.54454884887194    2.44659724981240
C         1.10915964203151    2.22372113565764    2.48845262436181
C        -0.14950598134032    1.47281169903289    2.31212010160605
C        -0.56639089736107    0.48826071140907    3.20402246406322
C        -1.74230333272802   -0.21948287578179    3.02702710290447
C        -2.62099353509939    0.01947090453332    1.94992419777491
C        -2.19258081457074    1.03402761641198    1.06825308869641
C        -1.00317732084371    1.71974434944958    1.23970919494800
C        -4.49226246223830   -1.26800312826912    2.88078721343906
H        -4.30940813274446   -0.71828022682430    3.80139924295738
H        -4.20507687053455   -2.31269340920064    3.03249962289437
H        -5.56035406881494   -1.22473122848746    2.66773729425244
C        -4.38334990235745   -0.84423704125300    0.47574162777597
H        -5.12360063638327   -0.06818878268902    0.25978210318768
H        -4.87605695182226   -1.81625104830684    0.45237905689826
H        -3.62607955137159   -0.83139297951069   -0.30488806260432
N         3.54795796715220    2.09408202447629    2.68582129542011
N        -3.78060555220358   -0.66787144369312    1.77641315090435
F        -0.67376284258263    2.65713058743107    0.34030655363577
F        -2.97106318050830    1.39441924547538    0.02332498296955
F        -2.01789658383108   -1.19508894462255    3.92194200787060
F         0.19045643552835    0.20318356412367    4.27356617801602

