23
CSD_code = DMCPHF | q = 0 | S = 0 | Stoichiometry = C12H10Hf | MND = 12
C        -1.42690152563616    3.64009518057391    4.14781886467279
C         0.19393875729537    3.80907701770340    7.21043078778695
C         0.90612722974478    4.64015685528555    6.33646826178485
C         2.06224944444006    3.94497366306821    5.90664586393713
C        -1.86266193413366    2.68576338683582    4.88205162852310
C         1.17455977280471    1.89653570504594    2.52454455884806
C         2.06739239980366    1.48449202997709    3.54414995283585
C         1.44119918960115    0.44314562223935    4.27327433749315
C         0.17434980818596    0.20779301705252    3.68571736982568
C         0.02621344194507    1.08681828935326    2.60200910697471
C         2.06538058719480    2.68232883927113    6.54690387891412
C         0.88530008753755    2.58312901886891    7.32309155032823
Hf        0.24692624424918    2.55664764067272    4.84976506495854
H         1.41477843425790    2.56772408335888    1.71145281473438
H         2.90414673505860    4.38978670359673    5.39244352355873
H         3.10998363912109    1.76354789121566    3.61494155265034
H         1.92998807088716   -0.20726117124952    4.98649608112942
H        -0.48948968193647   -0.61001155753692    3.92676181033017
H        -0.80574993788171    1.10590409988513    1.91616641253246
H         2.90244465139626    1.99953471180192    6.58643999093506
H         0.67640895869331    1.81133444001785    8.05203517113396
H        -0.69632020564959    4.08327295544617    7.75466799602530
H         0.67593583302182    5.67341157751344    6.12332342008409

