53
CSD_code = DMGACO | q = 1 | S = 0 | Stoichiometry = C15H24ClCoN7O4S(1+) | MND = 6
Cl        5.61398513132749   -0.24684943542787   -4.44052718538435
Co        2.64083661328088    3.40282452507063   -9.59508120899720
C         3.20629415275644    5.26955693121466  -11.44018795559151
C         4.79177944772321    2.87231275609255   -7.56814458336078
C         5.57239770897700    1.76404545739354   -7.87770746161902
C         5.83615763249048    0.80986841274477   -6.91378767300908
C         5.31987155300468    0.96318843796626   -5.63339478972835
C         4.56515005734320    2.08404043615940   -5.30959099523890
C         4.30575447293640    3.03689246924723   -6.27500104815994
C         2.54846697891615    5.97550574248995  -10.37151228173605
C         3.66195582485579    5.91858202464157  -12.69988169557477
C         2.29369498762602    7.44411256436046  -10.37746445647835
C         1.91479400361891    1.42957543686784   -7.78233264978594
C         2.70891473010735    0.73900775984081   -8.78705457900843
C         1.32991595042389    0.70451161081612   -6.62384590041603
C         3.01598703779160   -0.70989257995078   -8.66723502568690
C         0.56647879738897    2.26029515458712  -12.14374068325078
H         4.17993260205487    5.18935535311119  -13.31846945779743
H         3.53953827118778   -0.90211826574639   -7.73248365743738
H         2.09662876821741   -1.29248750581507   -8.66256422013481
H         3.63775264095699   -1.02790386423306   -9.49955603164305
H         4.09921363273973    1.71805836746876  -11.34267355029326
H         1.16646347049936    4.38679714581551   -7.41592014236610
H        -0.75594212476873    1.40671757016125  -13.46547494384337
H        -1.44479966876404    2.03655712579919  -12.00817927430634
H         2.57473903041170    2.41089042783904  -12.62793073646541
H         1.55762437717533    1.54158877261349  -13.75001518774292
H         5.96807011894572    1.63967351063283   -8.87476610434212
H         2.80881002933427    6.31535060121486  -13.24768043124930
H         6.44022831837869   -0.05025081556703   -7.15244493549903
H         4.18435087968560    2.20757978228134   -4.30901932662936
H         3.71378773279046    3.90479009165838   -6.02529758421253
H         4.33697416210858    4.74076995845050   -8.16798892703775
H         5.18353985607246    3.85690908786986   -9.28810238089998
H         4.33263302495558    6.74649264296744  -12.47931590144521
H         3.22942654642659    7.99759316190834  -10.43732399111664
H         1.77263223101391    7.71864529436977   -9.46333092187646
H         1.68160008673337    7.71911731575194  -11.23426538871789
H         0.74335265543416    1.39059261073108   -6.01907564138117
H         0.69266425584656   -0.10915251135727   -6.96387588416513
H         2.12440063004323    0.27912867598677   -6.01242623173814
N         3.36515330744473    4.00900306333045  -11.18452997798120
N         2.20652393679508    5.19943389474185   -9.38735748327196
N         1.79878753038327    2.69904686834146   -7.97219961894435
N         3.12267896907357    1.49166646411192   -9.74657715521716
N         4.44316956384618    3.81454336281046   -8.58573341733497
N         1.64117785619772    2.02705973568488  -12.87034105307203
N        -0.63049408639673    1.84518840898502  -12.56756882175429
O         3.90946785726607    3.16206138860674  -12.01678150253871
O         1.68667601438789    5.58851542134992   -8.29561373048049
O         1.09327149066927    3.42437215213255   -7.08517877357450
O         3.91580511492040    0.94813315061148  -10.70730177267458
S         0.56072583741959    3.08020385126923  -10.64684566775404

