87
CSD_code = DOBCAB | q = 0 | S = 0 | Stoichiometry = C42H40NO2PPd | MND = 4
Pd        5.73759850070341    6.34996787175441   11.97999213316140
P         5.26977472768281    8.49354685884755   12.53725839348382
O         8.55567355920472    8.45349754699771    9.37310973188662
N         6.77108939985678    7.43286614979110   10.23113554094485
O         4.09705354794531    4.35001936468368   11.33964448773160
C         4.20511304117177    9.41256611176948   11.38420427654413
C         4.45787046751150   10.70610598790110   10.94334702856015
H         5.34011874130359   11.23121502434362   11.28323131606415
C         3.57879304082790   11.31444794696943   10.06346338036854
H         3.77715917896225   12.31794541171869    9.71552780146616
C         2.44791040966041   10.64228419906208    9.62889423266353
H         1.76748001164213   11.12383480153225    8.94196954306203
C         2.19081411952326    9.35358362380273   10.07112699537637
H         1.30963772554679    8.82983245342449    9.73095431835805
C         3.06915511522982    8.73788859132165   10.94232169555854
H         2.89641369493935    7.72291589716515   11.28912734779148
C         4.55866441420267    8.94836863647542   14.15417407444489
C         3.43468983550556    9.75018983203940   14.31330472545058
H         2.95687451249990   10.19280524965638   13.45086303590646
C         2.92647043525702    9.98149354986789   15.58055978477589
H         2.05271925047266   10.60572479192589   15.70002307999465
C         3.52988920044678    9.41698209086721   16.69164214797126
H         3.12589010602041    9.59965760950646   17.67655105071914
C         4.64852341706216    8.61183154571713   16.53770176714029
H         5.12041502842665    8.16264440919075   17.39929305026575
C         5.15519102809223    8.37412540695520   15.27577475292249
H         6.02218725602760    7.74089582377985   15.14093833136669
C         6.82978547824165    9.45065051222492   12.50210576992763
C         7.08844646506519   10.38367639603514   13.50344644541014
H         6.34593269200156   10.54919510781406   14.27026994554826
C         8.26628813925960   11.10705374864146   13.53950688784085
H         8.43149924603246   11.82448774527814   14.32964400100017
C         9.22592003552457   10.91164146737829   12.55993669461249
H        10.14945593530169   11.47034330772838   12.57891335977812
C         8.99186709926306    9.99671312512053   11.55389471365676
H         9.72931975601950    9.83741903864841   10.78246801669602
C         7.80834118481486    9.25614303165589   11.50695208939664
C         7.66146203160504    8.33198243763681   10.38676798246115
C         8.23419589184019    7.45886122905806    8.40800634504385
H         9.05450533488166    6.73473604356147    8.36801886538828
H         8.13991271505932    7.94064444382965    7.43385008825869
C         6.91917428502990    6.82545056218476    8.92467887327177
H         7.01050227333124    5.73841016567759    9.03846628441723
C         5.65256223373173    7.09964227918774    8.07264107529985
C         5.81793485716428    6.45946544150898    6.69206674692912
H         4.88983757194291    6.55465382914671    6.13381509861248
H         6.05283348631340    5.40071934931067    6.78364371321244
H         6.60810588032137    6.93774422973464    6.11739780547210
C         4.45677229216324    6.45702823078373    8.78558857135347
H         3.52701642522679    6.89998344409001    8.43760888666905
H         4.52010347466871    6.59678034940352    9.87573906130696
H         4.42683669634425    5.39038867790414    8.58278701913316
C         5.41601921999750    8.60492969442145    7.93140302309403
H         4.53098856958851    8.78425345682274    7.32576289888724
H         6.25602680203682    9.10446164116443    7.45292008318349
H         5.25639516440376    9.05491519046047    8.90831938331714
C         6.98456996003759    2.57674552692885    7.39202883284118
H         7.71387097312779    3.06908741938275    8.01840569822826
C         7.38177844710128    2.04337797618442    6.18196217726430
H         8.41572995439406    2.11772421749661    5.87631064334636
C         6.46117234973794    1.41592109920600    5.35767628921989
H         6.77533108490780    0.99962824130979    4.41192791031861
C         5.13576889934566    1.33025971666570    5.75219173416513
H         4.41310241640649    0.84376440755475    5.11310956896779
C         4.73541016985210    1.86801617251661    6.95944532748789
H         3.70048902295317    1.80064729194119    7.26323990472304
C         5.65249758286460    2.49561691259673    7.80679066914560
C         5.18413427578976    3.06335338167830    9.05639586081361
H         4.10872752567348    3.11828880814659    9.18265453697864
C         5.93339362292077    3.52244302083750   10.06724562664488
H         7.01397208201655    3.45248511921289   10.05713523110563
C         5.31822293203525    4.11286010488582   11.27704277728000
C         6.21847854229209    4.32775840088583   12.39183532138541
H         7.26467515076838    4.03534142120726   12.31916484351063
C         5.68716838871678    4.90637859206537   13.55325427400640
H         4.62685024653787    4.74130059841008   13.76101855004610
C         6.55023357249095    5.24555703837309   14.68911042590907
C         6.19650933510452    4.92485485303820   15.99862374836905
H         5.26798185759686    4.40415067789206   16.18430958203295
C         7.02293148589397    5.26912759720935   17.05305180794136
H         6.73739355296082    5.01415118284141   18.06369690426893
C         8.21038718551308    5.94271395453716   16.82072590030279
H         8.84955636468544    6.21667287826173   17.64728696329994
C         8.57075324199375    6.27672629591312   15.52325221217575
H         9.48824172952686    6.81811152765102   15.33979678283870
C         7.75070909846138    5.93258831684554   14.46735280471378
H         8.01114794534430    6.23243628485602   13.44690333750580

