91
CSD_code = DOBCUU | q = 0 | S = 0 | Stoichiometry = C39H45CoN2P4 | MND = 5
C         3.48581589426681   10.37387620877884    7.18331681739825
H         3.13536485490608   11.11432504278467    7.90245496061488
H         3.96491004038164    9.55293723111501    7.71491717308631
H         2.64137512361033    9.98461674842668    6.61966593406393
Co        5.02838213765279    9.91851478299346    4.18313514669922
P         2.96239182775225   10.32830056074723    3.43807191183246
P         5.17850491445190    7.89809300819079    5.19093558737559
P         6.93801824958157   10.87399249994054    3.45117025424053
P         4.73630350022525   11.10535924235885    6.05474323325164
C         1.37848536602131   10.33743857533720    4.34841070583790
C         6.32323607344984    7.51702241005946    6.57109120585010
C         5.15741764244587    8.77882666668975    2.48211249373231
H         5.55189521956530    9.36818121999024    1.63867423693799
N         2.69397768224030    8.96071653185872    2.46762232389347
C         3.79005804934764    6.75855839474501    5.52989730129521
C         3.81612843826321    8.27138799937247    2.07938425698466
N         6.01928903457363    7.05721265298957    3.97530095872937
C         6.80614377333061    5.93343335911887    3.98669278814011
H         6.93821099240642    5.34964365267951    4.87769762431561
C         2.63095834482902   11.69704856618096    2.26046779333438
C         6.04238233118608    7.61289679759076    2.71945455325155
C         1.58290084532694    8.32581379059367    1.96844779338288
H         0.58885872038008    8.67291222142792    2.17885769571637
C         3.30264364658975    5.93383773545242    4.51986370064471
H         3.81752740065464    5.88552780595175    3.57166313270760
C         7.43785982169640    8.34589333760025    6.64655752400829
H         7.51699337280553    9.16118468362464    5.93596451501412
C         8.31713057887602    9.76833043616649    2.94414100673339
H         9.20876447468860   10.35817186510614    2.73252224079530
H         8.02629977717874    9.21060304738274    2.05814202562857
H         8.53162949634001    9.05361795778820    3.73635954106008
C         3.29320566159070   13.84847877818603    1.40690760411306
H         3.95523917840424   14.70281764365645    1.43329367777447
C         3.09835093923029    6.82524968385242    6.73820673796830
H         3.46260672562535    7.46605386379908    7.52897424926381
C         1.99976806978212    7.23552560087632    1.26420962278731
H         1.37093621627958    6.53052008095622    0.75367907475523
C         3.47971718794514   12.79554178927313    2.28376394212293
H         4.29086848632839   12.80010009879420    2.99865070871314
C         0.96888962802080    9.14749723353548    4.94786649588726
H         1.55634743309560    8.25113499183773    4.80197866390937
C         3.41346007781777    7.19748108699985    1.33124129321723
H         4.05148001329255    6.46422673087673    0.87565099106580
C         4.02406524510812   12.79297256147320    5.87540290253708
H         3.10004079515307   12.72237284337836    5.30361339288961
H         4.72244672406233   13.43148016486249    5.33649944521136
H         3.81865099692510   13.23032880639145    6.85223714490629
C         2.15695760467652    5.18550551068755    4.71941200626217
H         1.78799453899495    4.55207597291268    3.92593390160413
C         6.20137451346821    6.45889300560564    7.46238217626517
H         5.35257699083254    5.79252054160370    7.40550578052447
C        -0.17858052487737    9.10923187220944    5.71567463765678
H        -0.49131947251368    8.17793330418574    6.16546913553561
C         7.32767024941415    5.77207996477151    2.73719207971078
H         7.98404183773614    4.98446836605108    2.41807580464110
C         6.84533850737103    6.83294305852829    1.93148656133213
H         7.06187699653715    6.98436375587673    0.89047903972506
C         1.95776095374241    6.07110954138955    6.93770396524892
H         1.43570242581690    6.12609997118276    7.88292500995673
C         7.17784687424956    6.24940000679480    8.42158340190683
H         7.07970481268790    5.42445299497126    9.11292861379883
C         2.25739814577897   13.80294060525754    0.48895670655238
H         2.10912263994263   14.62069805094432   -0.20140456225799
C         8.41523539900389    8.13233741346627    7.59903535394926
H         9.27973257430846    8.77955014975199    7.64853080208833
C         6.85721865004772   11.92231860117309    1.93539619677419
H         7.85245493798188   12.03587664677998    1.50707109571610
H         6.46517964818918   12.90294466426932    2.19621692032542
H         6.19406501863967   11.47260952970556    1.20061242837347
C        -0.50972182129720   11.45410390186999    5.33273185554858
H        -1.08670433629763   12.35532537040972    5.48413536985155
C         0.63626936503606   11.49433596120678    4.55818492719995
H         0.94604039163138   12.42432837942060    4.09982303977354
C         5.98883304631914   11.47920990277281    7.35819207621141
H         5.49169525844722   11.92922323974324    8.21745425669926
H         6.74344605156582   12.16483431434612    6.98427627931955
H         6.47271161971882   10.55481614927537    7.66839469669913
C         7.92712497691293   12.04383820273922    4.48176849967295
H         8.32703088117960   11.52125238951610    5.34829592780904
H         7.29102929870858   12.85959216078363    4.82085967383530
H         8.75164852079162   12.45266000911441    3.89830897608978
C         8.28159513709170    7.08274704035325    8.49445912734213
H         9.03928272745934    6.91146572604504    9.24516729713519
C         1.59428437043263   11.65491931479327    1.33431370587784
H         0.93379770985839   10.80105118314861    1.30081803868231
C         1.41325511659036   12.70397962363993    0.45205116654331
H         0.60893685186933   12.66688792901534   -0.26872999629812
C         1.48055982807249    5.25204724233388    5.92644357608595
H         0.58353963606328    4.66957058653313    6.07943872593906
C        -0.92082513387053   10.26417655634832    5.91024025141149
H        -1.81781382199936   10.23672429667913    6.51149308920234

