85
CSD_code = DOBNUE | q = 0 | S = 0 | Stoichiometry = C22H46F6O6OsP2S2 | MND = 6
Os        2.11497960679996    2.55280505371303    3.94166049588348
H         1.44569679348820    3.11696491530351    2.69243153326546
P         4.32964785183516    3.04639604141138    2.89850963299388
P        -0.09785073469361    2.67740778250783    5.03657179587707
C         4.07604259031126    3.74322332537551    1.17877878146269
H         5.06484462612219    3.92032798735672    0.74576074998770
C         3.31541928365586    5.06488857433116    1.23166930475948
H         3.21231941594046    5.47241354703301    0.22678419067308
H         3.81289376280273    5.80582737794252    1.85138548625453
H         2.31842473112746    4.91191332354950    1.64065611844856
C         3.32865796054071    2.74351975609263    0.29806243717795
H         3.11861334362019    3.19237869587256   -0.67114438675676
H         2.38588609403319    2.46148309888301    0.76697914565173
H         3.91080565488931    1.84198738683533    0.13298808358691
C         5.59233363515904    1.67021788321724    2.66820340732311
H         6.20104813673780    1.71089098459829    3.57594394909863
C         4.91581884352774    0.30381159555824    2.63397951536032
H         5.67202670337288   -0.47887558201692    2.61349632468640
H         4.29406942939378    0.20451357013413    1.74826798039220
H         4.29933228240774    0.15772485640651    3.51764149037390
C         6.52551798157910    1.81425022093057    1.46564267984098
H         7.31137784548929    1.06439792904066    1.54529670829858
H         7.00117442253471    2.78807376905006    1.41889317388567
H         5.99993334366128    1.64047266004080    0.53116475118727
C         5.29708162105979    4.38211349114858    3.77576659061048
H         4.58329569354174    5.20355601505489    3.89569941705014
C         6.51638960290197    4.92254349474388    3.02784541456819
H         6.88093966155822    5.79776210136869    3.56319069236406
H         6.27851673222229    5.23511143747392    2.01476774326006
H         7.32194363402107    4.19176316419069    3.00412220268160
C         5.72381250785066    3.90861654595134    5.16371720182183
H         6.14035038618921    4.74201266130847    5.72516775209573
H         6.48971872730619    3.13679319425842    5.10320443857423
H         4.87613957514427    3.51518091459957    5.71982003293036
C        -0.14014891165550    3.75457206216391    6.55912370508798
H         0.55099686995454    4.56472716069151    6.30685587288132
C         0.40786364905257    3.01379121011833    7.77745329317974
H         0.65224333967551    3.73038855717709    8.55953794813474
H         1.31453759278340    2.46022785242672    7.54268767314861
H        -0.32750757300362    2.31974036528312    8.17955795089846
C        -1.48593622841667    4.40845613623713    6.87877878477576
H        -1.37130619614602    4.97788716122302    7.79980212847286
H        -2.27736424664358    3.68024507946664    7.03232347546503
H        -1.78173811118640    5.10791280740948    6.10250205608988
C        -0.92056392413358    1.02385048318472    5.38437876897941
H        -1.07658461266171    0.62653978870420    4.37484349046967
C        -0.01036786225566    0.04153392832588    6.11194902219407
H        -0.45182061714773   -0.95398446321354    6.08291508244921
H         0.13814791598020    0.30980849934197    7.15221966955485
H         0.96861011489693   -0.00445584222361    5.64292322635935
C        -2.27565338808299    1.10669565588163    6.08339782023271
H        -2.73245823610622    0.11775846142805    6.08886540229743
H        -2.95780974103322    1.78508466848794    5.57768140380105
H        -2.16350131566364    1.41911940912414    7.11723611287828
C        -1.37045068041345    3.43972571293186    3.88867119856989
H        -2.28408289374835    3.57415475626483    4.47547444089107
C        -0.91979056765330    4.80426684052824    3.37457190645670
H        -1.75562390432048    5.31454043680901    2.89777737518045
H        -0.13163833703168    4.68195827122499    2.63427700009363
H        -0.53324295844180    5.44292701895151    4.16421703049895
C        -1.66985701477235    2.52380350126964    2.70121047154939
H        -2.19321719131934    3.08949899510314    1.93298631233223
H        -2.30279446682754    1.68631759998289    2.98080948999502
H        -0.73790363357800    2.14640723373546    2.27716099235777
C         1.85323495343582    0.89479862632853    3.31668404345470
C         1.55391165672416   -0.41805082288950    2.80498937787014
H         2.07555083066378   -1.14802454799491    3.42880842837829
H         1.88692022685623   -0.52329085657583    1.77122467671317
H         0.48124904487476   -0.61406817742942    2.85279801171564
S         2.33011442246221    5.94334868982451    5.02167897514865
O         2.38544351680282    4.51130362965400    4.73561632996073
O         3.17500212980293    6.72212799929105    4.16461616883898
O         0.99746828235098    6.42634530325385    5.24184843403338
C         3.11278740830584    6.09469595938798    6.70436054158105
F         2.63482077119854    7.18691433781670    7.30044734226369
F         4.43705324229712    6.22028132510200    6.63434409630669
F         2.83357977799527    5.05072812981330    7.48486295341775
S         3.29452968290786    0.81010247226813    6.41141522980485
O         3.14621025480208    2.16228643824936    5.88259204254518
O         3.17523536483642   -0.19515834557495    5.37995374102316
O         2.61894155289088    0.56650828019819    7.64623624823159
C         5.10044582437308    0.72885555754466    6.89527103867512
F         5.35033633718331   -0.40651886257982    7.54447075107247
F         5.90744126687971    0.76118628381839    5.82602369242642
F         5.44488483611303    1.74416145919544    7.68694393559876

