112
CSD_code = DOBNIR | q = 0 | S = 0 | Stoichiometry = C54H53CoP4 | MND = 5
Co        4.99957537051360    2.67219457768085    3.55397949686520
P         5.38188585272918    2.64745817652626    5.68587633132454
P         4.87202583912097    0.50347316523301    3.54685005679248
P         3.01067981891117    3.78662992459541    3.59193453474123
P         6.24254094546312    4.40692020384883    3.00821390876699
C         4.33907021281371    1.45031998000441    6.64757687905805
C         4.70846531695619   -0.00080650902611    6.36439093204563
C         4.23481755544839   -0.47178819627572    4.99493319520955
C         3.10957881617907    5.58977009264520    4.03089016006677
C         4.20237900859384    6.33029069760016    3.26550048355092
C         5.61097445220152    5.98090402825203    3.74697333414441
C         7.03862973417892    2.08713940241769    6.22189730057933
C         7.39927029900992    1.99703135568901    7.56461615684723
C         8.66056227437788    1.55512053872094    7.91312701103044
C         9.57427323068910    1.20161741260565    6.93068928400834
C         9.22167582195225    1.28880761962962    5.59609870271534
C         7.95726256279160    1.72787928727408    5.24706122431895
C         5.20711898763562    4.09208644098214    6.79605850704203
C         6.30484190347052    4.90427687141478    7.06903139317024
C         6.16200187251576    6.04408253196940    7.83902112428337
C         4.91876380247067    6.39406629259383    8.34061013043815
C         3.81959885638826    5.59643192985357    8.06755083937353
C         3.96082459142901    4.45609457062965    7.29698432182220
C         3.82913073419424   -0.31870834944255    2.27993012625670
C         2.89880501681978    0.41602164553765    1.55889560796663
C         2.07875815405985   -0.20004740594389    0.63017244111128
C         2.18744043734846   -1.56209440325378    0.40973111490775
C         3.12374088016746   -2.30189715704090    1.11530971948984
C         3.94012437527668   -1.68638830374645    2.04525559788467
C         6.44430919600112   -0.33773150917308    3.14588109526331
C         7.20498849155604   -1.08925773017950    4.03342897221166
C         8.43176248965244   -1.59843924347448    3.64258470421000
C         8.91552820102427   -1.36235079130558    2.36814528862423
C         8.16192961490955   -0.61563198422308    1.47451885447404
C         6.94047984487009   -0.10641028017113    1.86397676001011
C         1.63160582150782    3.24522349945699    4.66732019035388
C         1.27942203264882    1.90188952327608    4.54111226252562
C         0.28719997424304    1.34745162645036    5.32494620346506
C        -0.36400268397273    2.12895171601029    6.26717005443677
C        -0.01881436200136    3.46233912572321    6.40636841742975
C         0.96899054041606    4.02179462578970    5.61271142534079
C         2.07891100974951    4.01173990440181    2.02644350609009
C         0.69107405020861    4.09028263839340    1.97222632869375
C         0.05237144604305    4.29990496599266    0.76337384755709
C         0.78701439665014    4.44423565072028   -0.40214738378137
C         2.16905896077004    4.37126264518978   -0.35574849738508
C         2.80801869329096    4.15062214014723    0.84999622458258
C         6.45723576774956    4.89401538527216    1.24419414653671
C         6.47857278044793    3.88804770656874    0.28336874973143
C         6.68228987439199    4.17715836396058   -1.05306836749505
C         6.86881799972394    5.48812628527981   -1.45549388948312
C         6.86050519574704    6.49809226147481   -0.50875429913062
C         6.66432256666507    6.20573339333108    0.82911101584647
C         8.02438140542436    4.49182696941793    3.42519294784190
C         8.58162199956295    5.31520681359671    4.39504955761340
C         9.93258689077969    5.23132914422001    4.68736309822024
C        10.74248685611066    4.33432766310581    4.01440025130585
C        10.19584531041845    3.51449049415815    3.03916371834768
C         8.84798282429051    3.58870878917771    2.75441500538172
H         4.92198828100175    2.43541257689199    2.14896412532932
H         4.46484458711086    1.66252591895917    7.71469787177392
H         3.29127548692501    1.62227967111377    6.38073045360048
H         4.24638755601314   -0.63896407719051    7.12719775971101
H         5.79221366668652   -0.11373453515810    6.45701363309949
H         3.14359645680794   -0.38012359889771    4.94811615738957
H         4.48717841241625   -1.52642827321380    4.84673116891310
H         2.13720616510825    6.04529685465540    3.81288607137971
H         3.30948367948356    5.66417374780674    5.10399361757826
H         4.04335073426779    7.40597948894688    3.40130157325954
H         4.11003572694604    6.11977583548455    2.19503455628548
H         5.60290327684664    5.84601268385078    4.83237012033277
H         6.30358754133863    6.79480042327527    3.51685121419676
H         6.69558572306472    2.28266538350842    8.33521191576405
H         8.93686492239213    1.48698439712565    8.95605076538505
H        10.56022924691517    0.86015046340264    7.21142226359718
H         9.92628952026274    1.01530658731100    4.82453953536086
H         7.66759115506204    1.79839030683837    4.20713254051596
H         7.27571103038261    4.62802299873853    6.68005416944652
H         7.02359623154509    6.66212077134452    8.04944821516106
H         4.80710864845268    7.28440604717421    8.94210732340476
H         2.84727118414490    5.86436892479925    8.45687858954196
H         3.09712769464179    3.84244589537023    7.08241653456986
H         2.83167662591855    1.48400919055005    1.71920396966068
H         1.35903629392996    0.38737266640103    0.07791705189823
H         1.55041489739616   -2.04801329826658   -0.31513827986344
H         3.21778399756653   -3.36387308072823    0.93712713459214
H         4.67916889569262   -2.26736819992115    2.58060183867650
H         6.85147167143244   -1.28593439401397    5.03430175631270
H         9.01399885294429   -2.18141287367081    4.34258281105892
H         9.87562624835842   -1.75840728095539    2.07018362938069
H         8.53303735715619   -0.43128414243274    0.47619627220498
H         6.34463043302031    0.48139066642211    1.17798206637709
H         1.80465170579498    1.29626109054916    3.81269810762141
H         0.02224282006504    0.30590816266257    5.20744702608929
H        -1.13615407471885    1.70065848963136    6.88948922696888
H        -0.52565081325809    4.07558526272177    7.13850788468190
H         1.21146428703073    5.06636988436770    5.73635132522525
H         0.10530023877265    3.98382274016533    2.87439771692883
H        -1.02680189304598    4.35374123843104    0.73134370344622
H         0.28233605992021    4.60975926173421   -1.34306010116559
H         2.75156591724494    4.48128622014627   -1.25944077023925
H         3.88534084780514    4.06451103781750    0.88415274303261
H         6.31335371552054    2.86588065144108    0.59429463112326
H         6.69172708578917    3.37880086000451   -1.78137403763087
H         7.02164362478717    5.72262179994555   -2.49890172640338
H         7.01068052600089    7.52426294731781   -0.81333633886644
H         6.67421114585777    7.01729288079949    1.53986843608003
H         7.97107299621680    6.02958470774840    4.92637801789133
H        10.35527877052822    5.87441014787559    5.44689269949095
H        11.79549462952367    4.27388911471616    4.24790737503962
H        10.82310151396207    2.81410179550295    2.50607076110144
H         8.41305478238014    2.93697774734357    2.00739478905018

