90
CSD_code = DOBPOZ | q = 1 | S = 0 | Stoichiometry = C46H41P2Ru(1+) | MND = 8
Ru       11.50348888271835   13.22315492206708   11.98854196326694
P         9.68383207545367   11.84800674583288   12.15266246264882
P        12.50894746677685   11.58554602654797   13.23035783845363
C         7.39721301152709   11.23535041861680   13.60945551303072
C         6.56300135953439   11.30322588242876   14.70903930453980
C         6.90052454728538   12.10126190256626   15.79250658728889
C         8.07543643651266   12.83424678404486   15.77735733762384
C         8.91415059789149   12.77022050413701   14.67822831867113
C         8.58137679685450   11.96960100411239   13.59308948110472
C         7.78754098702798   13.00432007062324   10.59288751608016
C         6.89862830968779   13.12332959964543    9.54347713265031
C         6.73369271280755   12.06812510094087    8.65915892264818
C         7.44935519510312   10.89627466582694    8.83485425976384
C         8.33882004558286   10.76952369643228    9.88792382211935
C         8.51212748436144   11.82683770551862   10.77266119140239
C        14.81173766883210   11.66688279718130   11.66789137913301
C        16.07207496489077   11.24949756596273   11.27968061790703
C        16.66486851083520   10.16751578428046   11.90957166347442
C        16.00169815839087    9.50478433408693   12.93127903009825
C        14.74443452742634    9.92025081238674   13.32721453388482
C        14.14094116294555   10.99970607763036   12.68724072489054
C        11.91380825924850   11.86291943014005   15.98082136437890
C        12.20895069156154   12.28338227759111   17.26563416723896
C        13.43564750339130   12.86131217050921   17.54856999686352
C        14.37193637643808   13.02288022274541   16.53936576291728
C        14.08385130468551   12.60391840266239   15.25436898755450
C        12.85610379133911   12.00734691166043   14.96634590049750
C        10.32806236707984   10.11942803500182   12.27890192456371
C        11.45531745311801   10.05374674765845   13.30797196966696
C        10.15747247970551   13.01649690125555    8.10296364964174
C         9.35652880818442   13.34549952063321    7.03052791173119
C         9.29714481729742   12.50872652791823    5.92697336660182
C        10.05049444207283   11.34852740053580    5.91045004042680
C        10.85382636842370   11.01170880334126    6.98602864518536
C        10.91110716737697   11.84001631732377    8.10445491009678
C        11.66059064942781   12.23307597409721   10.39594617538479
C        11.72292048000912   11.53917221908286    9.29127657063640
C        12.68927828286413   10.36529316308723    9.33453147182060
C        13.72771276137957   10.37530574613492    8.25621487911669
C        14.80789090107810    9.59335572159917    8.36094638820981
C        15.00699188448849    8.59967681487493    9.37962318686929
C        14.03332072087056    7.85345286754530    9.94446141222640
C        12.63951676548992    7.92065582543873    9.59936647518957
C        11.99850634170362    9.03626621615777    9.23287522377197
C        12.93161732261186   14.85779880766741   12.52112165176408
C        12.42524381238642   15.13136968371784   11.23120348963550
C        11.01692166251886   15.30376012992651   11.34330800316301
C        10.67314461898265   15.20128212603518   12.72343451554888
C        11.84126479982887   14.91038380454142   13.44665610653521
H         7.13390297416549   10.62421930914275   12.75671596043527
H         5.64473853007437   10.73618948822986   14.72207524194157
H         6.24351500125248   12.15412007654077   16.64688361760013
H         8.33692588796071   13.45814090286227   16.61905764744952
H         9.83395075727820   13.34020088901750   14.65790517967585
H         7.93232854099833   13.82040074675166   11.29196486586162
H         6.33592029378757   14.03486814839726    9.40992252854409
H         6.04492133041268   12.15932905541113    7.83374674099622
H         7.31632741233838   10.07571220343233    8.14628188570980
H         8.88573656226806    9.84847572013504   10.01938984186118
H        14.32987473124525   12.50565996070911   11.17673258686669
H        16.58992564953940   11.76692079903831   10.48678250968044
H        17.64969935670694    9.84343211930291   11.61019206369033
H        16.46970446096106    8.66692051869167   13.42514835862348
H        14.23375766010950    9.42076535427074   14.13958240344696
H        10.94506969217954   11.42845118673408   15.77783709965422
H        11.47554348122617   12.15967008354306   18.04818553711223
H        13.66076986898538   13.18785731924821   18.55195532743628
H        15.32755946366390   13.47642137951988   16.75429600184511
H        14.81613798031408   12.72697067089188   14.46721549414597
H        10.71712453432297    9.85258204996904   11.29052489774651
H         9.51121784039379    9.43983875464362   12.54280861759434
H        11.04201278265999    9.97333265125277   14.31679658808996
H        12.08970557707782    9.18099483476799   13.12533366970254
H        10.21438565555869   13.66667201594232    8.96677300299390
H         8.78111815186390   14.25895696987181    7.04909057268978
H         8.67495734661321   12.76467507301818    5.08337526963992
H        10.01794825938385   10.69627276625333    5.05051588622543
H        11.43235034077148   10.10256051550996    6.93813066900156
H        13.21034973368505   10.38564805891453   10.30435564557644
H        13.59331526965392   11.04114713401787    7.41744252731956
H        15.59539134781652    9.68012199622017    7.62447284695541
H        16.03580109560943    8.35195042364876    9.60537691891331
H        14.32298469296456    7.04170521221931   10.59923191694575
H        12.10243936060203    6.98119717308079    9.61317616452465
H        10.98014942072799    9.00481792965488    8.87448147079207
H        13.97765837573255   14.80766986681867   12.79518143759180
H        13.00949965333943   15.28530753538753   10.33356130663914
H        10.36474589462965   15.67721628731545   10.56382381789904
H         9.70082884097694   15.42579572522179   13.14224640211398
H        11.94364245416325   14.90698992465229   14.52440573055462

