71
CSD_code = DOBQAN | q = 1 | S = 0 | Stoichiometry = C33H34P2RhS(1+) | MND = 6
Rh        5.34895651480582    4.90432205169022   14.36160980320970
S         3.46311054273902    3.71459650513976   15.18382764927849
P         5.23280187090580    6.20311036869802   16.19823477064634
P         2.77873441864881    4.69650786150985   16.77059378068234
C         5.15202831488074    3.94930840563848   12.36906185455704
C         5.95303362779326    3.17257574245713   13.17341842246630
C         7.46151082215273    3.13565137310837   13.12642521529224
C         8.11720041502080    4.53034832492797   13.07085273993917
C         7.31038812679309    5.58530815833856   13.79641479411810
C         6.34569402308294    6.38354283538426   13.18585935249224
C         5.89615438250983    6.28331638785671   11.74961649196681
C         5.67587153503653    4.83779865948806   11.26742131999861
C         3.48477573243641    6.39539530406734   16.81511027123280
C         5.87621330102355    7.89355180395282   16.35557220730133
C         5.16550727613867    8.95582297523286   15.80071499650444
C         5.67927107490346   10.23793676705221   15.85515651253734
C         6.91193392935038   10.46653058133146   16.44650891886087
C         7.63503362468839    9.40945176958153   16.97492307388272
C         7.12554262873561    8.12452290701037   16.92392688277074
C         5.97843340446970    5.30533439093917   17.59021148413489
C         6.60185812019463    4.09262042238243   17.31186817342408
C         7.16144307230937    3.34845456029450   18.33405135432358
C         7.10064458471001    3.81478476358109   19.63702935139137
C         6.49021913882631    5.02771184752275   19.91722857291541
C         5.93175615514632    5.77702864171495   18.89888752290510
C         3.18518951207343    3.91765668757716   18.35746418871484
C         2.85568390515607    4.55858725368309   19.54853758254694
C         3.15941846149097    3.95343165704516   20.75278204812687
C         3.78428973601097    2.71525567065490   20.77076186949825
C         4.10159298800093    2.07512534478852   19.58452457789705
C         3.80107317366216    2.67375283878443   18.37398583966241
C         0.97641277966266    4.86105880472523   16.67161155244813
C         0.12940613499360    4.28384561014678   17.60941236371993
C        -1.24042323090961    4.40660605206199   17.45364957940738
C        -1.76095256576776    5.09179287405080   16.36781820160769
C        -0.91402522427888    5.65084340134281   15.42252861612469
C         0.45439635954260    5.53216020004837   15.56864895078749
H         4.09756497954852    3.68534137611100   12.29519318437560
H         5.49881562157042    2.30983483899575   13.66332333288545
H         7.81910776933849    2.60990028035774   14.01516084469584
H         7.77253672360918    2.54373813777835   12.26034762304767
H         9.10519632766501    4.46583394509461   13.52841809015753
H         8.26220116490948    4.84630887505198   12.03790601942479
H         7.79736312408327    5.99782986430385   14.68259109796902
H         6.16873660326560    7.37055819490144   13.61882869074325
H         4.95814618957116    6.83658951043261   11.65260968841675
H         6.63098037535691    6.78540419259424   11.11257695748574
H         6.60116032885223    4.41695982569045   10.87556843644868
H         4.95336491222725    4.85113304517688   10.45036921527031
H         3.43828001722257    6.83602717029342   17.81374545687753
H         2.91330850280400    7.01366894464062   16.11481010503057
H         4.21246777933645    8.77709239869184   15.32082180369317
H         5.12144277171683   11.05938810809769   15.43200521165388
H         7.31143899342880   11.46779465148672   16.48820536329159
H         8.59981367580175    9.58541591140855   17.42540532327494
H         7.69074315613121    7.29795291834294   17.33181303329592
H         6.63447837193371    3.74154028396701   16.27926182035178
H         7.64483346982062    2.40794118078273   18.11806135689058
H         7.53613340399403    3.23659896416915   20.43721059773449
H         6.45405197408682    5.39170916866086   20.93269412079866
H         5.47414091969669    6.73267986847019   19.11662180202713
H         2.35418389475732    5.51686993341912   19.53000115172620
H         2.90430996766194    4.44459387693116   21.67933831948347
H         4.01714630045745    2.24688851410492   21.71449083915303
H         4.57935227895938    1.10791071025524   19.60083492150056
H         4.03938413833792    2.18530948635912   17.43897796949895
H         0.53771535647222    3.74205791177520   18.45034517293366
H        -1.90188824045867    3.96129714197771   18.18034061493492
H        -2.82973037606642    5.18267499198868   16.25215859338230
H        -1.32132807194982    6.17350922940878   14.57085794281294
H         1.12316892894279    5.94299674446652   14.82305441137949

