45
CSD_code = DOBSAP | q = 0 | S = 0 | Stoichiometry = C22H16IrN3O3 | MND = 6
Ir        1.79446351060144    7.18920192803089    2.88889160322838
O        -0.38911779911975    6.65003211298184    2.45678308045223
O         1.09529925844518    5.20179417537190    1.98875432989280
O        -0.96652739560057    4.76938844099854    1.61641456995553
N        -0.11236076802287    5.51786692832843    2.00903751398502
N         1.81698160828127    8.11163164593619    1.12322696951477
N         1.78649805167502    6.27933499409153    4.66122721799394
C         1.87547856507174    9.08986702236268    3.52832650334300
C         1.93285499313249    9.56502407540130    4.83207233719098
H         2.04343656911645    8.87477645084329    5.65664149730853
C         1.85548733028525   10.92206483341853    5.10099902514136
H         1.90094389944478   11.26972151504486    6.12300862182425
C         1.72020609563917   11.83657063632929    4.06779976875162
H         1.65797538520529   12.89268986031729    4.28409339384823
C         1.66698024174162   11.39459954110091    2.76169909277466
H         1.56132478491323   12.11149224115127    1.96121138432684
C         1.74545263918524   10.03059459959637    2.48408313312962
C         1.71211997335939    9.46163835129655    1.14461462577995
C         1.59845802621528   10.18079079469429   -0.04374212581544
H         1.50592513297297   11.25404953186387   -0.01404150133760
C         1.59958120145683    9.51433091958564   -1.25381275412285
H         1.50620638524769   10.05953960780248   -2.18068111142793
C         1.72729355968704    8.13178195899798   -1.25677834856261
H         1.74021491910074    7.57188458529977   -2.17765651016051
C         1.83358411996911    7.47542519239169   -0.04572276668128
H         1.94005499075903    6.39890191330916   -0.00849202957713
C         3.77446386130287    7.09952522296723    3.20476556944361
C         4.80371196823310    7.58059285488199    2.40594204053358
H         4.57891273589414    8.17073732473946    1.52857472381425
C         6.12895254189820    7.32224421433909    2.71714366509621
H         6.91376842193752    7.70575311995127    2.08120035014858
C         6.45470312764410    6.57590900783888    3.83919830271347
H         7.48936381219910    6.37634480773012    4.07522007715424
C         5.45376379567486    6.08966468856588    4.65511889211749
H         5.71347805008403    5.50829254126166    5.52714970210137
C         4.11829457922051    6.34685004955717    4.34829808369896
C         2.98974875100602    5.89305139820384    5.14799152231938
C         3.07043781560931    5.14203005308156    6.31922756122067
H         4.03283529878589    4.83151340534407    6.69167376826244
C         1.91637417945598    4.79420279500275    6.99416142546737
H         1.96543942310839    4.20759008647877    7.89890828330771
C         0.69315132633799    5.21608018961788    6.49068385790858
H        -0.23162743059338    4.97428507703026    6.98864281497755
C         0.67850797026562    5.95573731047413    5.32388702235398
H        -0.25549550682801    6.30670199638720    4.90425481660456

