77
CSD_code = DOBWIB | q = 0 | S = 0 | Stoichiometry = C26H45N5Zr | MND = 5
Zr        5.54791574550717    6.84440292210280    3.09247552524257
N         6.77589389322147    8.81909670395949    3.62122121933354
C         7.48061802761835    8.63473207265561    4.74811249832704
C         8.68414131641916    9.29467940353873    4.97179987682899
H         9.24195344141518    9.13036999927898    5.87911675041682
C         9.16154861921277   10.18965640347616    4.02554267072087
H        10.09114982884875   10.71489411636078    4.18671103647658
C         8.41209195394426   10.40220326387228    2.87796810933177
H         8.73430410843856   11.10527093330701    2.12524806295840
C         7.23365465107323    9.69387285672066    2.72133006395656
H         6.60327398834503    9.84322192498058    1.85275285538115
C         6.80036534171779    7.76718333731891    5.80140582564103
C         5.95642009982628    8.76774555198945    6.64675192202981
H         5.29963054049227    9.35647339137544    6.01039668443874
H         6.61246868513259    9.45070011483110    7.18326314897744
H         5.36406958925708    8.21007664264181    7.36822451572316
C         7.82759969861122    7.14491470053567    6.77951224263194
H         8.63193980847790    6.64917944795947    6.24162927706452
H         7.31486156882553    6.41973161983631    7.40596352263765
H         8.25830548368983    7.90244163343591    7.43032396924355
N         6.00831677914846    6.77107015266933    5.10606808949604
C         5.13049582556898    5.94223939707358    5.82038060952036
C         3.77714490133013    6.30827821738304    6.03065258548420
C         2.94435123916374    5.48123302724314    6.77282784778696
H         1.91797377392093    5.77215331836119    6.94568095808685
C         3.39746583756101    4.28103031297971    7.28537163339663
H         2.74100924045052    3.65649957764846    7.87338315458631
C         4.68397155950543    3.86541558897612    6.99537193659257
H         5.01050838165573    2.89491103952689    7.33750129826457
C         5.55219546983215    4.66785170320856    6.27257360121450
C         3.19044619275668    7.54180498313215    5.37223474425024
H         4.01314917058022    8.08630126823674    4.87710096071550
C         2.48459157930422    8.46044891004628    6.37667086570857
H         3.11453605616520    8.67098380938257    7.23705980893083
H         1.56633874588215    8.00167594292554    6.73635477075472
H         2.22427825849359    9.40471978054141    5.90182835103903
C         2.20131376181871    7.13083192584142    4.27094885211172
H         2.75058011006999    6.71538505674681    3.41939265238822
H         1.64228837761677    8.00314306831681    3.93402171259683
H         1.48959452595370    6.39485516439528    4.64207606749716
C         6.90411781524311    4.13351972547182    5.85466078437389
H         7.51525881110532    4.98366957823379    5.54632802505136
C         6.71892215436856    3.25355546791664    4.61444915807719
H         6.28854539870234    3.86449408876122    3.81437379824641
H         6.05452559663764    2.41887569783668    4.83145821999610
H         7.67853591046718    2.85696461515295    4.28612030734824
C         7.63517955348711    3.37491284691834    6.96319019863250
H         7.66491196116966    3.95776538270089    7.88174636663265
H         8.65836463717453    3.16650205857086    6.65590188198244
H         7.15272289969198    2.42395054604063    7.17596882630557
N         4.76332170834342    4.98982317857652    2.60317062563263
C         3.64910201919687    4.23281403924546    3.13362769375897
H         2.73196862446351    4.34743123246553    2.51819134560590
H         3.42444063267477    4.53070003963287    4.15913299975418
H         3.87795828965711    3.14993224881422    3.14523545911069
C         5.15491804256278    4.40481348294684    1.33583209052658
H         5.39551367630775    3.32862703370638    1.45091487765465
H         6.03985821835563    4.91316405937150    0.93973943061675
H         4.34210196523113    4.45395235197588    0.57981467321817
N         7.34917187084877    6.59475982907011    2.08189228816981
C         8.57587099759354    6.25205018257779    2.75319116236582
H         9.21689343319598    5.61574134044460    2.11395419670730
H         8.34996471009808    5.69949530531709    3.66867439168940
H         9.18471215751105    7.14584849406352    3.01781324045451
C         7.62141809563695    7.26645807658949    0.83983346559971
H         8.20833524580685    6.62458509915111    0.15392990907325
H         8.22227302213669    8.19364003195320    0.98273354368253
H         6.68195129556516    7.53394725946638    0.34396798822201
N         4.32325946111289    8.17309605659253    2.07764680139739
C         3.73503585422829    7.77533789198594    0.81870502896586
H         4.03327247561244    8.45480146850510   -0.00884960177272
H         2.62489171913280    7.80497168641160    0.85303084502710
H         4.04292232013146    6.75992622953106    0.55460037298006
C         3.89097504681530    9.51466453130190    2.39090666107345
H         2.78808974343802    9.58240857310180    2.49724777889847
H         4.15899982748818   10.23201251977265    1.58644594757473
H         4.34563863195863    9.86900846500991    3.32156893957823

