79
CSD_code = DOBXAV | q = 0 | S = 0 | Stoichiometry = C30H45N3Ti | MND = 4
Ti       -0.17546727990197   15.22047659020079   21.97659815498873
N        -1.98855165454877   15.20380081218171   22.02845225639381
N        -4.33274124485273   14.83123780066691   21.98727321819348
N        -3.62665805743038   16.69105843616229   22.94204528236241
C        -3.16811659335942   15.53968526721361   22.28907930496752
C        -5.43649668678627   15.52623990635869   22.44295842058365
H        -6.42840393324766   15.14586691675430   22.30605551061135
C        -5.00684229262990   16.65981130531959   23.02423829080983
H        -5.55378986701886   17.45407656988545   23.49047904086073
C        -4.35863491664206   13.58474405159855   21.31826661673531
C        -4.33895506451325   12.40678686562448   22.07044382338820
C        -4.35311056454798   11.19453288428477   21.39551901139536
H        -4.32780696653943   10.26968887365373   21.95003036076034
C        -4.38908746142582   11.15538190929093   20.01448473782436
H        -4.39646346729423   10.20349286926097   19.50371467830547
C        -4.40353896428499   12.32813333070330   19.28435308173876
H        -4.41722245250850   12.28055736709310   18.20667444980748
C        -4.39248330910575   13.56104709366621   19.92177015680122
C        -4.23113536980218   12.46712249834334   23.57547654031771
H        -4.57512949756928   13.45104704642432   23.91017607977998
C        -5.08692938126616   11.41321141583315   24.27858416172478
H        -5.09793159638806   11.60327566167047   25.34977392933206
H        -4.69222331327149   10.41288619688118   24.12178153958629
H        -6.11106620077020   11.44385572360815   23.91264988207107
C        -2.75519052706655   12.32287880304443   23.95971155886987
H        -2.63261764914437   12.42482920554956   25.03600145883083
H        -2.16031297279115   13.09039172261083   23.45590234803802
H        -2.38357450271361   11.34519047304531   23.65942559763971
C        -4.35415998511878   14.84728248598103   19.13204025202230
H        -4.62882713847501   15.67275202008947   19.79643222069130
C        -5.33525502015180   14.84872721136832   17.95905787472530
H        -5.37786935002987   15.84135130800500   17.51564325305598
H        -6.33418163708648   14.57790769336743   18.29463835869576
H        -5.02893698309969   14.14993628510334   17.18525011290339
C        -2.91882622525452   15.08182305157916   18.65256142956041
H        -2.24010653061321   15.09980140354644   19.51084240391791
H        -2.84741314859005   16.02810846658932   18.12034724983347
H        -2.61045599795489   14.28267218788248   17.98152376475590
C        -2.81132445153351   17.73327027474695   23.44060555876923
C        -2.47376439255833   18.79981601156706   22.60099443995125
C        -1.71821533741658   19.83971718914893   23.12564644800100
H        -1.43972216152043   20.67153477524922   22.49751507129688
C        -1.30939057107182   19.82093376476015   24.44562258885876
H        -0.72520114900519   20.63949096330243   24.84005353377763
C        -1.62365983238159   18.74609529508023   25.25595249483746
H        -1.27125754429841   18.73195384052446   26.27549963070186
C        -2.37572155467462   17.68569127347186   24.76923835763290
C        -2.86418928571702   18.78349172980768   21.14255107628737
H        -3.63440788204320   18.02032934484496   20.99418625238397
C        -3.43367170134667   20.12154440350866   20.66912013479797
H        -4.24805228914478   20.44106840031643   21.31581450391900
H        -3.81729016196721   20.02161589385902   19.65608550714468
H        -2.67232639838259   20.89689148783742   20.66392391518169
C        -1.63561340859147   18.38293941146607   20.31878395995902
H        -1.89561310236256   18.31186240460282   19.26450401170347
H        -1.25682196169641   17.41101803794984   20.66562575121239
H        -0.84731709467463   19.12520149407622   20.43234809677474
C        -2.65254747131103   16.47089803890652   25.62232168754730
H        -3.46178973762807   15.89587008136225   25.16173684802451
C        -1.39398436878692   15.59588877059009   25.63104062003115
H        -1.11084203379571   15.33853229866783   24.60070058210236
H        -1.57401530918336   14.68174255661102   26.19326602209451
H        -0.56711562959272   16.13124364544989   26.09486801385923
C        -3.08364611858202   16.82859762559541   27.04517323011180
H        -3.91309299458225   17.53233809305779   27.02869305176391
H        -2.26597501555192   17.27087632949571   27.60796599802679
H        -3.40383807901274   15.93109513907785   27.56992186358712
C         0.82795312710467   16.85358300018208   22.81246951825138
H         0.19814597559119   17.61151557632956   23.29830793144873
H         1.41341654733545   17.37376212919835   22.03549971502719
H         1.54668812459944   16.49878962874807   23.57063611796028
C         0.63225296942387   13.50675825790923   22.87061296789699
H         0.46455848647965   13.40732094143693   23.95218512157131
H         1.72154652001966   13.53914560233462   22.71101502943536
H         0.25751038778226   12.59035044360936   22.38983674662407
C         0.56136217359611   15.03378297177742   20.02430637035537
H         0.31168181192099   15.85325007498944   19.33593220969676
H         0.22857493622340   14.09410643948859   19.55793426885420
H         1.65962978214485   14.99261664861748   20.09764833965733

