74
CSD_code = DOBXEY | q = 0 | S = 0 | Stoichiometry = C25H43HfN5 | MND = 5
Hf       -1.27190816909537   -2.48286377292545    2.95484728696321
N        -0.05171345839081   -0.42447275344794    3.48486621633210
C        -0.23775057423615   -0.18699151598199    4.78532092924763
C        -0.18927309423649    1.09925081369340    5.31724312492123
H        -0.35739608069566    1.24951494427644    6.37307666415418
C         0.06889755539461    2.17039802862481    4.48101209662925
H         0.10254444120641    3.17802582747360    4.86805417749648
C         0.28774041496036    1.91749765106392    3.13412799090270
H         0.50619759193689    2.71859250248868    2.44558689832228
C         0.21234553520683    0.61025438946096    2.68922305503310
H         0.37507511189487    0.37376259428295    1.64598548598009
C        -0.42673885736847   -1.38806545069415    5.68315413186892
H        -1.04551316220793   -1.09310838931001    6.54692931736574
C         0.97670226492216   -1.72999013051452    6.25108496738589
H         0.88797987156077   -2.56302921537335    6.94273855716227
H         1.39696927771784   -0.87487212519127    6.77733404849884
H         1.64015348535116   -2.01273765595575    5.43803075041291
N        -0.99114269970053   -2.52401313368764    4.99080735943787
C        -1.99680421830398   -3.21708259591007    5.68347910687880
C        -3.23891661803154   -2.62937466964484    6.01109399780058
C        -4.18244153240959   -3.36962191120274    6.71035394763030
H        -5.12887009937003   -2.91743647654324    6.97117826823150
C        -3.94440118025868   -4.68245999835393    7.06764747916856
H        -4.69682995902368   -5.24505975077134    7.60083994549402
C        -2.73584119126893   -5.26704107040973    6.73847157769670
H        -2.55227593042662   -6.29311348340703    7.02052205176175
C        -1.75247433118376   -4.55029828925078    6.07720488940546
C        -3.58555174789420   -1.21883691566009    5.58226374157932
H        -2.75722386445831   -0.83124975927013    4.97733112027197
C        -4.83312879273882   -1.19020186185052    4.69384761253033
H        -4.61864136792138   -1.67068427456652    3.74170395428957
H        -5.12460214927820   -0.15934377823435    4.49997157738019
H        -5.66974517095100   -1.69825016018872    5.16684090560869
C        -3.78763940741324   -0.30765917566023    6.79832321789320
H        -4.66977388883330   -0.61052915328633    7.35742583512094
H        -3.92138810888677    0.72547211475981    6.48147572454297
H        -2.93329484413863   -0.35436154976634    7.47141416203602
C        -0.41284560291100   -5.18331541779895    5.78671996515485
H         0.25177419236926   -4.37973097937855    5.45517594114377
C         0.19593740204781   -5.83786417540693    7.02920854815066
H         0.20102549371740   -5.14374416184777    7.86752386047333
H         1.22122644496455   -6.14101516558281    6.82526672857833
H        -0.36293300354212   -6.72273905208766    7.32351019905203
C        -0.54179342257678   -6.18600422906009    4.64055900184758
H        -1.21895001898978   -6.99329589471908    4.91213227081623
H         0.42879060933014   -6.61457408646867    4.39778382381746
H        -0.93620634878735   -5.66518828965403    3.76873464629949
N         0.41722469262870   -2.97464561592095    1.93451823713265
C         0.78818069869117   -2.28838339488993    0.72096442157301
H         1.46327092732503   -1.42941640550468    0.90561892180649
H        -0.10258662795573   -1.93410708786898    0.19742465967564
H         1.33346195532339   -2.96386550622068    0.03674859084417
C         1.59620389134185   -3.28754483650631    2.70602124430568
H         2.28871664083028   -3.92080196728283    2.12490574816190
H         1.30650727623562   -3.83667557551641    3.60272142674825
H         2.16609564159053   -2.38122774935541    2.99861601533777
N        -2.53750382038776   -1.13200218534504    2.05625179234194
C        -2.81399301271122   -1.44228307574615    0.67109419946760
H        -3.88607338997417   -1.30367285973082    0.43713346153682
H        -2.54518032740199   -2.47632970496201    0.44983922979427
H        -2.26071499920014   -0.77846988080687   -0.02407574121709
C        -2.84277239431880    0.26018296081789    2.27635403596742
H        -2.24308905193499    0.93209909105217    1.62778571469455
H        -2.66614634113245    0.55302086974554    3.31222334061365
H        -3.90174930069937    0.47154283075681    2.04661273273585
N        -2.24881248756410   -4.23406407115737    2.60795668840265
C        -3.66463695162579   -4.32483326670870    2.88816460718860
H        -4.28619123374892   -3.83865518547713    2.11148155754398
H        -3.88422759117082   -3.87524900526720    3.85664726490923
H        -3.97913629092280   -5.38047877688291    2.93383003529679
C        -1.94467557937998   -4.96782755345183    1.39628691078287
H        -2.15283764711339   -6.04268247361513    1.53179692183772
H        -0.88775134305280   -4.84559809314066    1.15215058618836
H        -2.55423413072081   -4.64187987807254    0.53140023755760

