83
CSD_code = DOBYEZ | q = 0 | S = 0 | Stoichiometry = C28H49HfN5 | MND = 5
Hf       10.18027212774861    4.88291120626172    5.44457505277655
N        11.53367057821201    2.94220179904868    4.73496665573195
C        10.96027000350563    2.47830147253562    3.62471409091446
C        11.01081069323909    1.13545801337069    3.26309438581713
H        10.52671186627779    0.80012260191077    2.35838294894068
C        11.68502620339380    0.24995016549003    4.08313200486232
H        11.74243755648608   -0.79932394046931    3.83237080140660
C        12.28635277131224    0.73782954523471    5.22970028105546
H        12.82624621658884    0.07331405105194    5.88499282699230
C        12.18464998095192    2.09159637086669    5.53225261876293
C        10.30850230428302    3.48898621031656    2.71802653963001
H         9.60982593258600    2.95407484008113    2.05426282981976
C        11.41951771867973    4.04700746296609    1.79084381129313
H        10.97291224235510    4.74306022144403    1.08474889921793
H        11.89332683352140    3.23731016626206    1.23844732293822
H        12.17383177602275    4.56378736241244    2.38038003318762
N         9.64698120369271    4.52543833786699    3.47818855566050
C         8.83330061068908    5.37435095007305    2.71089822200369
C         7.63782474518139    4.91111957373869    2.11334396647819
C         6.89547346293641    5.76030179797610    1.30720169115695
H         5.99239672300842    5.39580129843989    0.83941185082508
C         7.28062284301011    7.06895693482016    1.09420819257130
H         6.69385037813295    7.71428344704313    0.45682655879632
C         8.41616349706726    7.54564563264220    1.71979032648385
H         8.70717719924713    8.57449944851771    1.56552929083770
C         9.19709032833909    6.72674255009701    2.52012269179446
C         7.10254370999395    3.51705218214911    2.37499931825932
H         7.74083625709112    3.04039716075085    3.12608467020232
C         5.68403959763378    3.56450103260244    2.95368277857616
H         5.64719626714637    4.19979035663220    3.83509146909595
H         5.36702245001786    2.56223821173146    3.23701920512571
H         4.97502466846867    3.95122517648888    2.22617296782557
C         7.09768308849083    2.66887058504272    1.09855143546459
H         6.80327709741667    1.64532500496992    1.32455160845344
H         8.07942362674815    2.65179911975131    0.62871162195083
H         6.39249050269055    3.07597044309366    0.37753193749564
C        10.44143711564502    7.30005374655687    3.16188512168028
H        10.86009702163610    6.52195789518410    3.82459431809846
C        10.10397175715504    8.51571374473940    4.02802102400467
H         9.76873702791012    9.35208159827533    3.41810926785563
H        10.98295906228486    8.83346996968736    4.58600969881573
H         9.31918119289712    8.25299145643266    4.72902117404702
C        11.48043139959005    7.69768582847801    2.10736711568362
H        11.75092871903670    6.85492487198079    1.47762446516630
H        12.38258815776789    8.06891581184010    2.59002823331819
H        11.08980941227500    8.48515561779793    1.46588664140736
C        12.83518233596005    2.66984662532350    6.75895092223370
H        12.48616175754881    3.70754749914888    6.82831300750257
C        14.35861384606382    2.64885758045075    6.60077420350406
H        14.72910784462334    1.62729110212202    6.53359032709144
H        14.82808206487243    3.12669628642946    7.45729792869234
H        14.65589441875735    3.18202787744920    5.70112408916510
C        12.40759357693357    1.91972751805205    8.02015678470172
H        12.79445700607070    0.90271599647900    8.03234680557052
H        11.32392915151370    1.88656919236503    8.07096924245876
H        12.78268300212654    2.43491333771592    8.90112134972120
N        11.94716096140086    5.69132710340568    6.12514395721324
C        12.18600593533067    6.35578238870687    7.38475421833244
H        13.15497951864998    6.04744566226839    7.82042792250558
H        11.40291749228802    6.10650181320117    8.10200286251414
H        12.22978474229463    7.45734499761907    7.28171123085181
C        13.04912092875442    5.95724037768491    5.22764606850568
H        13.11894099078549    7.02512332439865    4.94479614735314
H        12.95047061367409    5.35963784719572    4.31765052657333
H        14.01506791509675    5.69854639636623    5.69781548466022
N         8.77278819492619    6.27749946946834    5.91223613654984
C         8.83155134294135    7.16558950938774    7.05135528376978
H         8.14459816240508    8.01814616723619    6.91233638464403
H         9.83775159770739    7.56487683239106    7.16600835028587
H         8.53216997841110    6.67680118569105    7.99877875154982
C         7.40082339682986    5.89822496830647    5.66571870371777
H         6.90913458209972    5.45971628383087    6.55649249889979
H         7.35842492995004    5.17914911715042    4.84762560242780
H         6.79626247110858    6.77649633661328    5.37680738795879
N         9.56678054893914    3.35635573676151    6.67380186030262
C         8.53217679792025    2.51517303484175    6.11799193613365
H         8.41862979602127    1.59244557161697    6.71504234810735
H         8.79733172890519    2.21699642780433    5.10007312725268
H         7.53864428211784    3.00180608904615    6.09531689329092
C         9.20695654905142    3.73908110445776    8.02032647973324
H         8.23908955214673    4.27270128931885    8.07720263922108
H         9.98821021554399    4.37419697975293    8.44350228914453
H         9.10569784192000    2.84905363575811    8.66683372537232

