89
CSD_code = DOBYAW | q = 0 | S = 0 | Stoichiometry = C28H56N2NiO2 | MND = 4
Ni        1.88595998189206    3.76380458048606    0.49937880394480
O         1.69410376081920    5.36407244925735   -0.39609357180901
O         2.07719063496497    2.16349467361744    1.39455912222477
C         3.70676958006975    3.45965105279096    3.27537965864038
H         3.26514517734948    4.32433329220093    3.76770671133453
H         3.67163461803325    3.63274411490970    2.19285050856346
H         4.74981207701697    3.39216218871764    3.57690409529490
C         3.13272617914633    6.62598308637256   -1.82877287383024
C         0.82427824183911    5.36325926152069   -2.65447400115680
C         2.11265189659634    5.41250859790441   -1.70948565966521
C         3.63012660777565    6.95636827237849   -3.23688984312595
H         4.49906816702589    7.60812911017507   -3.15115706804651
H         2.87991250624624    7.49333486726246   -3.80970085200311
H         3.93117795190981    6.07242892374972   -3.79161752016365
C         4.35161827335780    6.21284474130896   -0.98334206110871
H         4.94077947599569    5.45131102113778   -1.49144459590014
H         4.01980127688150    5.81125465154416   -0.02610917917537
H         4.99486849353844    7.07048529696167   -0.79595071930352
C         2.54871647945353    7.90091566669002   -1.21184015715361
H         2.03270204133759    7.66154646319715   -0.28876629656685
H         1.85345958679713    8.39116114722107   -1.88496718920008
H         3.35134832420458    8.60237797182928   -0.99157750327510
C         2.87504436545730    4.16526808899604   -2.02703404768387
H         3.36814333355245    4.09525741521241   -2.99217512513800
N         2.91105598608199    3.22209723718242   -1.17835764944230
C         3.60904356718066    1.97117262273378   -1.48267117290566
C         4.31332959787700    1.92962065197107   -2.84441598711088
H         3.60985438529213    2.03235247037649   -3.66894076477923
H         4.79965988025307    0.96215929457561   -2.94297892015568
H         5.08024165687030    2.69803475107966   -2.92499158005130
C         4.64829519485092    1.76690731852914   -0.37843099763585
H         5.41297616854840    2.53972968531575   -0.42936891120670
H         5.12295714272096    0.79380573446878   -0.47517525824578
H         4.14250959675115    1.83165251661463    0.57956125502548
C         2.55035447807411    0.86520640103733   -1.43197392531503
H         1.98842618657310    0.96931769174101   -0.50831628475734
H         3.01995177373682   -0.11446436926363   -1.46467718582975
H         1.86499981731938    0.95483292289770   -2.27277142425194
C         1.09004003570324    5.29389198314359   -4.16246027190944
H         0.13857593170865    5.11685598646934   -4.66371141294987
H         1.75717347715769    4.47887433035373   -4.42901249662558
H         1.49656554816520    6.21831599021586   -4.55555218215938
C         0.06542403004378    4.07467853056646   -2.28418036704078
H         0.10001506207460    3.89570979583521   -1.20272338269527
H         0.50738416544087    3.21274955043501   -2.78092746707883
H        -0.97739292472030    4.14365334770816   -2.58607104863079
C        -0.07729306005455    6.57090622482405   -2.38660768983916
H        -1.08775024362463    6.36830974661390   -2.73743634668636
H         0.28515417625538    7.44952589370303   -2.91266107344218
H        -0.11475822706933    6.78747513882972   -1.32491525254950
N         0.85895757295146    4.30496578811180    2.17644036826128
C         0.89339510414308    3.36112598108166    3.02432879215375
H         0.39650984635502    3.42933635178118    3.98764567804045
C         1.66011334366581    2.11610031459284    2.70844236347194
C         2.94840127332336    2.17296371497226    3.65344165382361
C         2.68164134115341    2.25242575276798    5.16084234353281
H         3.63309489122701    2.43110342710138    5.66149010144421
H         2.27313174688103    1.33146956365396    5.55988407644908
H         2.01595417671723    3.07043802254009    5.42168149453438
C         3.85128770251074    0.96435743325834    3.39491565692578
H         4.85970634343166    1.16848657283015    3.75076156313411
H         3.89502908176034    0.74376041309410    2.33431183761947
H         3.48596458251963    0.08771680429158    3.92225904533818
C         0.64541800346022    0.89856850618243    2.83028234788784
C         1.23382003009254   -0.37426003432398    2.21302226344716
H         1.92927698959831   -0.86357997617342    2.88659741932084
H         1.75058607481924   -0.13223199300376    1.29101155215038
H         0.43349298376900   -1.07764916585280    1.99067026437891
C        -0.57624202127334    1.30609634573598    1.98615387066790
H        -0.24717749353804    1.70624469361837    1.02744834814313
H        -1.16674128323039    2.06718354475615    2.49328447319094
H        -1.21741552788668    0.44622406320499    1.80199994266292
C         0.15167544858399    0.56753025694755    4.23944086819139
H        -0.71264097725591   -0.09063108263556    4.15594951417300
H        -0.15526971041353    1.45063946621161    4.79231686660517
H         0.90628248743818    0.03734261085152    4.81280094084094
C         0.15760717223754    5.55439519692425    2.47890024175365
C         1.21182350702235    6.66419909742602    2.42010127908644
H         1.89763773254971    6.58338039512433    3.26142122121419
H         0.73838853483450    7.64224040613547    2.44561853794651
H         1.77380863718648    6.55535602969591    1.49705488781303
C        -0.54086685510026    5.59896779266346    3.84350823803774
H        -1.30840509501128    4.83177875740238    3.92940985957555
H        -1.02538855023804    6.56729593066743    3.94252555577455
H         0.16653471081978    5.49683011735243    4.66474488146989
C        -0.88651363520054    5.75018788012787    1.37767129418368
H        -0.38415415002517    5.68373966295722    0.41798399720766
H        -1.36473526191348    6.72173887221586    1.47241856127318
H        -1.64792119243630    4.97449410231232    1.43430496084475

