74
CSD_code = DOBYAV | q = 0 | S = 0 | Stoichiometry = C25H43N5Zr | MND = 5
Zr        4.85952342259678    0.49640925419090    5.31899854876454
N         3.61781211815016   -1.49979301244141    4.84863010397730
C         3.77838685219380   -1.82416801419164    3.56043087552374
C         3.64457891563509   -3.13264432671128    3.10427948419779
H         3.80198527130402   -3.35786562305832    2.05988390646895
C         3.30919397439759   -4.13317606930420    4.00091456507038
H         3.20396891822277   -5.15645262548353    3.67274853921526
C         3.10459329959198   -3.78697350998813    5.33007255147173
H         2.82347078564465   -4.53061499862131    6.05949063109300
C         3.27991557845399   -2.46634010365242    5.70319375749354
H         3.13748347767505   -2.15734720038430    6.73306124527804
C         4.01915257930801   -0.67840466507175    2.59779765168334
H         4.69450507072284   -1.01377672871629    1.78958641011948
C         2.64900685254303   -0.39217875933041    1.92149116084732
H         1.92913730317806   -0.08444943246229    2.67724250120957
H         2.27586272355250   -1.27805207186459    1.41112467674736
H         2.77038296355017    0.40859130796946    1.19633812227515
N         4.50084295060997    0.51014730719194    3.26364853169936
C         5.52218746925955    1.22162332790796    2.62899196612071
C         6.79039752618941    0.66677882654321    2.33239774817340
C         7.73736280707471    1.44054954061844    1.67423695317126
H         8.70229154329356    1.01480724797268    1.43663135498400
C         7.48293273555949    2.75565751601018    1.33575609038037
H         8.23728718142254    3.34232812023747    0.83238430081862
C         6.25810732613611    3.31673501058780    1.65342645807592
H         6.07074854211040    4.34730799119662    1.39272928636191
C         5.27007311231063    2.56885701130941    2.26907740668378
C         7.17072199830085   -0.72921850794755    2.78768595408365
H         6.32408499899789   -1.16158283849705    3.33760292092219
C         7.50996072214588   -1.63198395159677    1.59599885104120
H         6.70219464423029   -1.63654893235376    0.86586192842226
H         7.67969359570391   -2.65452131163464    1.92926205246386
H         8.41023131201421   -1.28266081719249    1.09620066848562
C         8.34419031735930   -0.68208591110239    3.77427508006850
H         9.17487945940873   -0.10348043405910    3.37696265638647
H         8.69675570750485   -1.69232998194451    3.97637249704047
H         8.00778241456451   -0.23876481266211    4.71401216212490
C         3.90554939708864    3.15156439906779    2.56102014565342
H         3.20837006518862    2.30721885616666    2.61425849528355
C         3.91177919994551    3.83358494718757    3.93192490864990
H         4.20343801089584    3.10172259980066    4.69646520654469
H         2.92344763808171    4.22903838895809    4.16242820230815
H         4.62292424180993    4.65845764103822    3.93459453790600
C         3.41846571755263    4.11445081870539    1.47638745856792
H         3.96967286902994    5.05123962109672    1.50257618151942
H         2.36599542886899    4.34393709089340    1.63217055478454
H         3.53263994459818    3.67395092240744    0.48807732692364
N         5.96304439869668    2.15903970603715    5.80471000723628
C         7.28526764718565    2.50535795112594    5.33730091265983
H         7.37513026444910    3.59798883841325    5.18364654643363
H         7.49686088879239    2.02076719024465    4.38258304992615
H         8.07590612192365    2.22283123529646    6.06395332147500
C         5.64572817328273    2.95811241824353    6.97031259349503
H         6.34854569419739    2.77675583442825    7.81125127854763
H         4.62694416668903    2.74505533803781    7.30784120706395
H         5.71676423110423    4.03946626160806    6.74128315755968
N         6.10194256006787   -0.95894442411762    6.18568243466888
C         6.39984720156753   -0.65738498930787    7.57050445029785
H         5.74586214095286   -1.21771931740341    8.27526885822630
H         6.28907525311931    0.41407474741700    7.76061165470413
H         7.43984747349163   -0.94674865292940    7.82289182243611
C         6.32654687714671   -2.36762174563375    5.98017404444779
H         7.36854444395197   -2.64267943034490    6.23232079513012
H         6.15138748557491   -2.66083768713286    4.94146934724955
H         5.67640679774260   -3.00220025947060    6.62420108173701
N         3.13562009774728    1.01876342634812    6.32364057708051
C         1.89812435180449    1.13978762193876    5.58844004681283
H         1.33333129309838    0.18094501305738    5.54298280017650
H         2.10625943990322    1.47612893193119    4.56896935680382
H         1.22372548209385    1.87730641956343    6.06545103029856
C         2.86161715665744    0.58483175043330    7.67171363272462
H         2.28291690087948    1.34893232753498    8.22952531768039
H         3.79487548288255    0.40797251948392    8.21729859410691
H         2.24800899104511   -0.34312413148530    7.70876946393830

