57
CSD_code = DOBYIC | q = 0 | S = 0 | Stoichiometry = C18H24N2NiO12 | MND = 6
Ni       -0.00107139078539   -0.00085398045260   -0.00062728553308
O        -0.69869949421149   -0.94816762287485    1.87978953624801
O        -1.26855690831686   -1.26380374352233   -1.43547759911676
C        -4.27281836214040    4.08111785637102    2.37203897965245
C        -4.39275848367316    4.47264274185496    3.71381775807207
C        -5.60764463467920    4.99069450916285    4.15015886026945
C        -6.69488850714817    5.09846342305119    3.30455840523369
C        -6.56936796982219    4.69927562508571    1.98625389835425
C        -5.36478084273747    4.20206243590006    1.52002031056409
O        -3.05117465902464    3.63827405258532    1.94354634607604
C        -2.96036415522573    2.80940653217877    0.81686042057390
C        -1.77757287252050    1.85177958503394    1.05112652056845
O        -1.32910920286127    1.71309644699999    2.19678663317913
O        -1.35367723339844    1.26576108697568    0.02300636958409
C        -3.30345628202310    4.39513588897588    4.74234063232854
O        -3.35159280759300    5.07176277973393    5.75367645807473
N        -2.31590365078508    3.50205524871574    4.53342405361792
H        -5.67001961600166    5.30316434145793    5.18164885898554
H        -7.63052863715089    5.49392124064043    3.66811528009500
H        -7.40529801391012    4.78235756819742    1.30768065961224
H        -5.27408359969389    3.92415764159737    0.48061641055020
H        -3.85775949490892    2.19184232643645    0.68574234220889
H        -2.78384912448523    3.38300675313612   -0.10119327139835
H        -1.57927552640743    3.47243720796926    5.21932034667186
H        -2.18650765172724    3.00634417043855    3.66404209096413
H         0.13365783432503   -1.19593836197017    2.29835591056265
H        -0.99591879302221   -0.12607540973709    2.31725092403439
H        -0.52584297669531   -1.64204992812560   -1.94439385057265
H        -1.65736525641233   -1.97134380608063   -0.91356264755422
O         0.69741325385495    0.94735024194960   -1.88025173547500
O         1.26815715189403    1.26100276461530    1.43472146692139
O         1.35361595010645   -1.26531821682673   -0.02343825664133
H        -0.13472225891695    1.19477728293410   -2.29945942902020
H         0.99548196920550    0.12557688452126   -2.31771579563996
H         0.52701957299973    1.64073764769191    1.94486525470336
H         1.65861093814219    1.96888796263381    0.91429499575724
C         1.77878774679231   -1.85064400713053   -1.05139527483852
C         2.96015721883251   -2.80978203220872   -0.81634747801201
O         1.33025164064874   -1.71318804061986   -2.19715982620699
O         3.05098154532954   -3.63863156912710   -1.94310372728621
H         3.85778049678552   -2.19268527394365   -0.68493266944851
H         2.78290597928509   -3.38328888066868    0.10163111477999
C         4.27267413738667   -4.08122008323841   -2.37172220883489
C         4.39264584456940   -4.47231241915356   -3.71364017837926
C         5.36468533093590   -4.20194783830582   -1.51977766139701
C         5.60752023602294   -4.99035661615389   -4.15001677069771
C         3.30376303743058   -4.39375339824432   -4.74251480431234
C         6.56932371604472   -4.69897820923884   -1.98612006289242
H         5.27404837839927   -3.92399816554085   -0.48039077074313
C         6.69474496398472   -5.09823467907577   -3.30439419530072
H         5.66992039615972   -5.30265351571487   -5.18155789939294
O         3.35239118921511   -5.06927089170786   -5.75458358033063
N         2.31610929583155   -3.50094228038022   -4.53315369770608
H         7.40535243265182   -4.78186963569848   -1.30764197861849
H         7.63038980076331   -5.49369238455779   -3.66796069833543
H         1.58014774293278   -3.47013488634364   -5.21973843527583
H         2.18607060579237   -3.00595637023264   -3.66341904925626

