81
CSD_code = DOBZUS | q = 0 | S = 0 | Stoichiometry = C28H32F6FeN6O6S2 | MND = 6
Fe        8.56575181593524    1.01492960308781   25.03197819550384
S         9.01807734470663    1.03245853508202   22.11596881730578
N         7.23647125161424   -0.07112258709063   24.19154360146155
O         9.66569031433539    0.78667747931458   23.40423889774265
F        10.14681988163523    3.05079116811091   20.62137304844614
C         6.14434502016644    0.10632064032558   23.38574611279644
S         8.49725130169564    3.70160756184417   23.81333508819167
N         7.06928449987194   -1.86252782819879   22.88546214880090
O         7.87706202544378    1.89242049457508   22.07437471490994
F        10.59175944680148    1.06548754614924   19.97951832935179
C         5.23077138675170    1.14632784760747   23.32107665064486
H         5.36217837112108    2.00421270330024   23.95279305703169
N         9.27130599577696   -0.72799028585877   25.63864360363361
O         8.83921956504309   -0.23161847339097   21.43244177143942
F        11.56056771175369    1.83718764038577   21.71578183898144
C         4.23085873662488    1.04808446224794   22.37744079299673
H         3.51623945727501    1.85003348858410   22.27665465294455
N         7.64291428133436    1.22617876161125   26.76592088095024
C         4.12946764621928   -0.05812389106173   21.53057709899306
H         3.33604457849601   -0.08740514874008   20.79860703476281
F         7.75414525626245    4.34389557163787   21.24196757337171
O         7.66993446341841    2.68249632133576   24.45892681827625
F         7.22067292186835    5.76564345095826   22.74022481671433
N         9.89611006738508    2.10719415150755   25.86388855061328
C         5.02461207232227   -1.10759548240247   21.59322671697648
H         4.94547026692233   -1.94939770680787   20.92288127629215
O         9.70405447320243    3.29568987051813   23.16379453358130
N        10.07665358408359    4.00740008759867   27.00387961423524
C         6.03761864665115   -1.01320863060792   22.53450730804732
F         6.10812749131290    3.95283379639254   22.58627387586651
O         8.65336622612337    4.82050624177197   24.71941118390151
C         7.54366229462051   -2.96853866794924   22.10111581309867
H         8.24874420439309   -2.58944717656651   21.35707660773949
H         6.70025098430415   -3.44021029946354   21.60065759957574
H         8.03818796445939   -3.69792540140667   22.74179154797214
C         7.76237533429423   -1.22574831677417   23.85751818192456
C         9.01047996995394   -1.66348413493911   24.53612432978741
H         8.95292400726562   -2.70526361794373   24.87922165744068
H         9.81927542985955   -1.55612740225747   23.81157760609183
C        10.66627618907066   -0.77514613882509   26.05802856908706
H        10.88409622881311    0.14360466516987   26.59565567711790
H        11.31755176611961   -0.80989741014161   25.19165108703277
C        10.77106530086932   -1.99301021772537   26.98174753438041
H        10.97538343122219   -2.89551698556840   26.40692907819850
H        11.56754365089975   -1.87674730343684   27.71282796395463
C         9.38475868088316   -2.06736118235894   27.64149719781354
H         9.43201107112274   -1.77837299643138   28.68997060336980
H         8.98013009003650   -3.07743413645827   27.59771939706281
C         8.50687159684248   -1.07334276337732   26.84523386600014
H         7.55556162082293   -1.51235402201065   26.54183003482366
C         8.21401388835679    0.20295934837834   27.65260534688289
H         9.15619700543948    0.57684123534006   28.05544225180281
C         7.16051986821085   -0.04574397111293   28.75761463264847
H         7.48064836132543    0.37002912694360   29.71183245069807
H         7.00400542336142   -1.11339258735620   28.90128414700618
C         5.88140365021399    0.64027848045911   28.25168550662521
H         5.01070877057849   -0.00636001984064   28.32993109716668
H         5.67630342261697    1.54585992191913   28.82135244679307
C         6.20669290464048    0.98015053854411   26.79356446845548
H         6.00011114826702    0.13713059203707   26.13993928936540
H         5.67150410039920    1.83773860221709   26.40103092252111
C         7.96315242391646    2.58667370630008   27.21880544357259
H         7.88709053656153    2.69086025552961   28.30952320301419
H         7.26673735320913    3.27103192679460   26.73167040766991
C         9.32106134329210    2.92264577349105   26.71575533562356
C        11.09405169658941    2.67776168198539   25.52774340739561
C        12.09357011048871    2.23955713190952   24.67371008918021
H        11.95553290081787    1.32828565051195   24.12342358757873
C        13.19449286770522    3.05502305852646   24.52230520394491
H        13.98179371252919    2.76268540868488   23.84505542362574
C        13.30940761852640    4.26522470239136   25.21033450906675
H        14.18498397079243    4.87730491677159   25.05255494476749
C        12.32753983986156    4.70758324039193   26.07453632928805
H        12.42031825574248    5.65194137825024   26.58820299697196
C        11.21361970527216    3.89695230892670   26.22675964669943
C         9.61471853850534    5.20855041066786   27.64206791403721
H         9.04511110722714    5.79157519883184   26.91399402439570
H        10.47230664598461    5.78492132865992   27.98356664095711
H         8.98253665980283    4.96122446693885   28.49426756006135
C        10.38804789822260    1.82928308747732   21.07552193701579
C         7.34812235353852    4.44195921811174   22.49968587794828

