86
CSD_code = DOCLUE | q = 0 | S = 0 | Stoichiometry = C36H45IrN2O2 | MND = 6
Ir        6.51353224960175   -2.90716117847123    6.83288228875442
O         5.75783043183594   -4.60694698735747    7.93751570127097
O         3.80691476937668   -4.65926860020433    6.89477664991354
N         3.69168143693960   -1.95045825479360    6.35512020666558
N         4.67648729683027   -3.09542735964223    4.60877124655101
C         4.73585034223559   -2.66772538872459    5.89004776043723
C         3.69013616974283   -1.56339028841272    7.74894968138720
H         4.60124976676050   -1.94182114686576    8.21360492644400
H         2.82930678857546   -2.00468915874071    8.25342818102101
H         3.65659611693758   -0.47659275165881    7.84734703974341
C         2.53900232385370   -1.70046092473073    5.61663154801804
C         1.48064964707035   -0.95763578751632    6.09949680371410
H         1.49822239156448   -0.52795535349459    7.08655179286820
C         0.34741362848234   -0.75103776556991    5.30467640345307
H        -0.46560938705693   -0.16543517969755    5.70889099689522
C         0.25140695348707   -1.27891552609588    4.04730513885414
H        -0.63324493831954   -1.12458608483662    3.44804404341042
C         1.31092721244491   -2.04162505295397    3.51563380591909
C         1.26792731981051   -2.62164674912109    2.23199247683152
H         0.38901415768364   -2.47279927941084    1.62281869798039
C         2.31812976511772   -3.37012278700633    1.77423626373614
H         2.27143351232541   -3.82711285941419    0.79637221558470
C         3.46623473504534   -3.55932671074871    2.54862843179800
H         4.27520414913764   -4.16030902172096    2.16500480079190
C         3.55242966504720   -2.98396388677541    3.79915342942375
C         2.46754956292667   -2.23580177868447    4.30832318075585
C         5.81000634439810   -3.80442826424274    4.10300327456949
C         6.54444248337966   -3.26347225371727    3.05700022936705
H         6.23783715372776   -2.31331517530283    2.65185860032397
C         7.63633080953577   -3.95168127370131    2.54765706755454
C         7.95402145189901   -5.18344726935457    3.11095273291365
H         8.79128803038597   -5.73249985062746    2.70999216505767
C         7.22429860758610   -5.74817377011945    4.15071458864243
C         6.13259231650170   -5.04164705485900    4.63830493182016
H         5.48518779791467   -5.44456785652372    5.39515373715662
C         8.17724155907058   -2.88997764036528    8.25529037169565
H         7.83257900591594   -3.44393142741055    9.12312364021901
C         8.52038085235250   -3.61357820334324    7.13345524813847
H         8.45046876399087   -4.69719887019677    7.19674778191571
C         9.39576237628652   -3.11761148152550    6.00769745783348
H         9.30234446119951   -3.82065960491206    5.17733961238536
H        10.44423609642874   -3.12343968750452    6.32618790948302
C         9.00264703754442   -1.71547887383829    5.50834392821076
H         9.27399908499008   -1.63384422340438    4.45413889018070
H         9.56236391417624   -0.94628111565240    6.04267657998451
C         7.51716740510925   -1.45038292878645    5.65409170987439
H         7.02207936869030   -1.24000881508781    4.71013404138521
C         6.95104705874929   -0.84074919492422    6.79566680601818
H         6.08222748316719   -0.20450043621993    6.62418383624586
C         7.74118768081660   -0.40819128629057    8.01320338365079
H         7.02840204998179   -0.14515711391776    8.79759254032054
H         8.30677294621892    0.49931729555419    7.77507972453691
C         8.69021939628484   -1.49795570619320    8.54475718859726
H         9.68229445427062   -1.38422332548013    8.10620934955112
H         8.79955855885021   -1.37389474683433    9.62377901925246
C         4.59093333596658   -5.06655227140678    7.75277060285913
C         4.18997038351134   -6.22354268923670    8.66440152834437
H         4.40158734466881   -7.15989039437963    8.15107660485802
H         3.12468814750245   -6.17403266269518    8.87151784073281
H         4.76334381490019   -6.18779893954327    9.58616142300595
C         8.46086680070140   -3.42782332215833    1.38080405695415
C         8.06373803624687   -2.00555517269217    0.97566692446996
H         8.17875748460498   -1.31606542906675    1.80915375144383
H         7.03633126201178   -1.96870598865232    0.62167089955128
H         8.70650357433942   -1.66613988909069    0.16589545126098
C         9.95024337261458   -3.41532662494637    1.75212885701224
H        10.11635457452025   -2.80029353569652    2.63371456682095
H        10.53450030952847   -3.00412404635019    0.93156077755770
H        10.32241235961523   -4.41433282868918    1.95948410852438
C         8.23755688307849   -4.35514421857640    0.17736908427595
H         8.80967054677877   -4.00486455933122   -0.67912820953923
H         7.18423684246533   -4.37169765016166   -0.09448715990070
H         8.54624794914877   -5.37258348914033    0.40255866897303
C         7.60392200710012   -7.12104396778943    4.68415800712574
C         7.36223289748521   -8.15546074920245    3.57473082976420
H         7.97734981782099   -7.94847949442435    2.70247234486950
H         6.31870504735900   -8.14017490039597    3.26727585536049
H         7.60185383861396   -9.15422404028465    3.93361229581479
C         6.77240760151193   -7.51483589995848    5.90791638776406
H         5.72306188097604   -7.62987965360522    5.64568391370040
H         6.85854043567856   -6.76972333743731    6.69531952110989
H         7.12595314219472   -8.46718840480269    6.29927842285463
C         9.08449934069077   -7.13915910789308    5.08909233560910
H         9.27500038187626   -6.39804757333953    5.86178269103785
H         9.73696511511081   -6.92898928644797    4.24586075457117
H         9.34930485448895   -8.11892385517180    5.48155680409623

