75
CSD_code = DOCNOA | q = 0 | S = 0 | Stoichiometry = C37H32IrN3O2 | MND = 6
Ir        5.97788120847650    4.34342789747321    4.96637816412379
O         7.16537332396653    4.36973644655570    2.99963172791425
O         6.02481149494402    6.13173037235835    3.60319788740860
N         3.87711441760003    3.17520370798326    3.13410992372000
N         3.21375112047424    4.78779405410776    4.64952464980357
N         7.88683649257838    4.69304320379428    5.68864306975116
C         4.18590782013063    3.97845909605834    4.15992060552759
C         4.87715911376231    2.28052221458588    2.59374291331345
H         4.69655010725871    1.25937791037990    2.93532738274456
H         5.86309527552507    2.59655103563497    2.92544265722576
H         4.84878175569300    2.31504626389548    1.50425421146047
C         2.59974802177727    3.12742308981602    2.56937051826483
C         2.19814871530380    2.16055160100404    1.67240842012378
H         2.82572860052373    1.31822646203054    1.43562255499327
C         0.95055248819980    2.26985485910494    1.04502322605322
H         0.65596269797832    1.49972212206555    0.34753155448854
C         0.13103189341889    3.34212310382802    1.26658957283665
H        -0.80154602999617    3.44431331756680    0.73279167104374
C         0.49736278238002    4.33805981304399    2.19581081822118
C        -0.27804840137313    5.48632680420148    2.45106468911647
H        -1.21454967957204    5.61054934760131    1.92887416314556
C         0.17081779815986    6.44260917575998    3.32299948554349
H        -0.39747808799904    7.34938298939787    3.46865387277270
C         1.34709769764472    6.26430763393566    4.05789248830180
H         1.67926639030585    7.03589174912938    4.73228159344902
C         2.08143987958033    5.10712762968233    3.90198206619541
C         1.71853121498640    4.18479928219284    2.89396464413804
C         3.45088821998358    5.23195273385045    5.97295573265164
C         4.75448285024942    5.01331595339560    6.45359501297909
C         5.00690381214433    5.33284369033832    7.78963327735156
C         3.98769531390547    5.84895640596301    8.58337623653646
H         4.20412566893455    6.10100188954325    9.61226591374945
C         2.69487566888542    6.01061286365587    8.11247703598783
C         2.42491801515647    5.67679963634215    6.79450609444097
H         1.40947764080360    5.72982990924061    6.43457709885046
C         6.33193455235434    2.58593600848230    5.85725334185699
C         7.63275350182145    2.45969102784027    6.26477305563536
H         8.03839766887618    1.55518494425789    6.69828888279162
C         8.44932987324082    3.60587024628352    6.12686284045997
H         9.50140585228637    3.58617437884977    6.40465920798475
C         6.84891393917013    5.57308132317760    2.84417023370980
C         7.48425415557900    6.37104582553767    1.72553672556067
H         8.33814472718940    6.90994318332269    2.13532435761199
H         6.77298662829280    7.09426153904909    1.33519699020011
H         7.82932659383505    5.70570320948965    0.93857043183832
C         5.42477232443809    1.44157644027824    5.88727219633180
C         4.10480311828978    1.57699849923434    6.32675505091132
H         3.77753179897659    2.53673804143468    6.69793732887568
C         3.24231101042780    0.49889602824164    6.31030501942952
H         2.22684566162817    0.61827993968908    6.65931960612086
C         3.67065358618472   -0.73390710859165    5.84175878356215
H         2.99050603398221   -1.57259579395350    5.81768466181425
C         4.97660226814878   -0.88389539836844    5.40539429713984
H         5.31699353129168   -1.84269191118257    5.04083871481450
C         5.84753128179172    0.18915301072897    5.43352513879034
H         6.86048688897501    0.07149356688491    5.07807585718670
C         8.61479319899634    5.84593066599151    5.42435403775518
C         9.91767046873714    5.80524371216051    4.92273648860018
H        10.38795410859764    4.85218778709307    4.72752128930892
C        10.58461151358575    6.97796131170131    4.62459139369966
H        11.58801968573800    6.93357852438382    4.22565021825728
C         9.96964456054810    8.20346983087659    4.82103673655536
H        10.49355305774242    9.11699368503108    4.58128926325291
C         8.67246026951299    8.25059725916846    5.30863747621463
H         8.18331531214064    9.20320802367880    5.44956075508396
C         7.99528444595226    7.08525866076851    5.60429736465359
H         6.97628030820618    7.11423977759234    5.96042797519292
C         6.34816723285154    5.10073630416851    8.42260358374797
H         6.29351337487370    5.25239604460465    9.49797021687785
H         7.09098252472767    5.78421104299648    8.01787583363680
H         6.68032242521605    4.08503051418569    8.22483350342554
C         1.60604484184129    6.53219980083322    9.00185282499570
H         0.64867809263715    6.08376320520738    8.74542028167620
H         1.51370380131016    7.61267702802254    8.88522236403676
H         1.82592047821719    6.32350555532917   10.04599473617064

