29
CSD_code = DOCNOY | q = 0 | S = 0 | Stoichiometry = C8H12Cl2PdS6 | MND = 4
Pd        2.10597542643252   -1.72903770340518    1.18137965641853
Cl        1.08598226705373   -1.06891262778331    3.04175763774661
Cl        2.96039549911435    0.30027043863704    0.88451001439316
S         0.02491961476037   -1.98837152342215   -0.79327012698050
S         1.20819373145425   -3.62150874936446   -3.05608571818104
S        -0.60872398044755   -4.94736845650436   -0.96713174300319
S         2.34945724951131   -5.64458870113438   -1.09204921365401
S         1.24325955508467   -3.95602865921238    1.21118876934159
S         3.01026947959411   -2.66628201761584   -0.82068539012134
C         1.50550143756005   -2.31852104014371   -1.81971013604685
C         0.86948350422368   -5.10719649368434   -2.03798051407308
C        -0.18990984574257   -3.55598659095043    0.12966867307690
C         2.62083254218474   -4.24723649829088    0.03082210501028
C         1.80679866114453   -1.01477463422081   -2.53887579507409
C         0.56239804257630   -6.22844783711678   -3.01676364317207
C        -1.34602662722698   -3.31556477613816    1.08529988491343
C         3.83680962071776   -4.54851912034012    0.89663076990396
H         2.66169571480708   -1.13771308598770   -3.20128703050596
H         2.03554703984177   -0.24463289259687   -1.79573337459826
H         0.94354974826006   -0.70324330793172   -3.12386742541078
H        -0.30840539606511   -5.96617465284565   -3.61391534089299
H         0.35778660773754   -7.14801664116570   -2.47218621260589
H         1.41327655550096   -6.38568009281778   -3.67660195744969
H        -1.56161387306938   -4.21932046379431    1.65225384518529
H        -2.23451556307828   -3.02233912959717    0.52919689931412
H        -1.07297130177839   -2.51324682612558    1.77779644760596
H         4.01328400427387   -3.70751759602287    1.58743391658634
H         4.71780091633410   -4.68551468820663    0.27140085011133
H         3.66974936924411   -5.45532563222100    1.47590415216611

