89
CSD_code = DOCNER | q = 1 | S = 0 | Stoichiometry = C32H50AgN6(1+) | MND = 2
Ag       10.52847056640334    9.78893850053636    8.97829929082981
N         7.80403492289916    9.90977476243366    7.34701205993716
C         8.55022450803204   10.41917174431920    8.35341005278906
N         7.84887434812330   11.43782462350741    8.89530700561840
C         6.67251137311843   11.61292962998672    8.21547539557942
N         5.75251672885233   12.53991532484594    8.41365766356508
C         4.72935984546389   12.50171822638636    7.58134362940579
H         3.97577344006845   13.25815996546051    7.74311752729415
C         4.59338229472177   11.57270358064591    6.54568063813575
H         3.72821466869316   11.61868588598732    5.90504651221027
C         6.63913572711152   10.62613430431025    7.21065156394084
C         5.56158345294739   10.60702714483749    6.33477212261887
H         5.47827825971841    9.89207747551940    5.53162433744279
C         8.18617256025172    8.77588366819529    6.54547012997022
H         9.28260843237994    8.75094848885022    6.51848699034031
H         7.81870589948690    8.93043543583383    5.52817247586096
C         7.67648727450370    7.41351977143076    7.07452826643831
C         8.04999583852150    7.23620067575194    8.54614921828726
H         7.46054944359084    7.89473470284372    9.18031253005487
H         9.11206184850453    7.44905245653757    8.71371891640585
H         7.85800278993422    6.21364271956127    8.85895900531799
C         6.15844163239149    7.30386490228647    6.92221349686777
H         5.81850430767565    6.34158978713346    7.29605199514006
H         5.86823499743946    7.37798971076172    5.87688042352339
H         5.64604391149694    8.08069014062010    7.48543874586949
C         8.34968462791925    6.32146919225001    6.23984871260284
H         9.42545458286424    6.31568194711287    6.40232492083891
H         8.16163337959311    6.47157080823635    5.17941219277460
H         7.96117719111624    5.34552746908209    6.51694168071264
C         8.26324423672173   12.24350240679280   10.01366710020217
H         7.87077647243895   13.25000424092893    9.85367695493750
H         9.36004715198010   12.27629187767325   10.01105479680587
C         7.77577367503633   11.72531665125702   11.38597217860748
C         6.25374946113496   11.83367814079295   11.48600880152815
H         5.92255232877645   11.52717694790029   12.47476944420604
H         5.76419791411930   11.19608510201428   10.75394523057292
H         5.92820445230593   12.85580531905713   11.31369723277060
C         8.42082682348396   12.60694832176457   12.45807244322256
H         8.17664467859673   13.65359920805026   12.29455339185965
H         9.50397774018934   12.49928028341724   12.45239649188534
H         8.05830657375979   12.32502440507149   13.44269488974897
C         8.19893582466142   10.27108487502259   11.59611142461650
H         9.26841182740890   10.13549297072079   11.39568080230154
H         7.63810713985748    9.60301879027205   10.94585364346941
H         8.00878618294962    9.97101078088818   12.62293476393303
N        13.26416305000711    9.71529913497203   10.58789159345065
C        12.51330431430991    9.17659293702744    9.60032422365589
N        13.22245497471678    8.15806859668912    9.06866689308633
C        14.40940833975936    8.01238649890449    9.73698722128977
N        15.34056717981341    7.09540198485808    9.54457129664028
C        16.37358260187036    7.16432380623687   10.36258525983559
H        17.13611471073817    6.41598721365462   10.20514466402685
C        16.50914607476901    8.11501436734182   11.37844383370280
H        17.38326014893968    8.09416044620948   12.00818998397931
C        14.44094181912375    9.01839529084123   10.72271551399983
C        15.52941531632707    9.07022089745610   11.58366223391871
H        15.61267571269499    9.80184958194173   12.37166279607715
C        12.87214649301896   10.85407414854881   11.37773404313326
H        13.25480873911037   10.72044980100674   12.39242568159544
H        11.77587538277051   10.85980140802009   11.41841924923338
C        13.35032162010813   12.21822558908063   10.82454992561050
C        14.86789263066828   12.35722900484105   10.95628786480570
H        15.17253237435072   12.30044042361525   11.99859058934673
H        15.18553286113016   13.32115303439886   10.56738262456730
H        15.38717446614867   11.58330095746789   10.39538507714390
C        12.95597750730029   12.36991677786641    9.35555482063375
H        13.13076591131652   13.39035397066079    9.02615115297065
H        11.89458000170860   12.14159506761164    9.20437398789737
H        13.54560778363741   11.71010639347884    8.72288766791507
C        12.66754496354295   13.30846695804182   11.65394193803367
H        12.87877564535391   13.18009681236659   12.71282152855468
H        11.58902829155714   13.28723904325640   11.51222309708861
H        13.02833745805179   14.28828571377970   11.35405178036021
C        12.80292059797586    7.32573946886842    7.97189966728726
H        11.70620293344942    7.28983265216238    7.98490929885860
H        13.19973409129592    6.32416870232891    8.15064749319584
C        13.27656703676617    7.81510255268834    6.58415207128853
C        14.79459394050112    7.68146076979165    6.46138949409758
H        15.11433701837837    7.96887878888867    5.46315827021541
H        15.10639894949643    6.65670472155663    6.64232693479591
H        15.30615767563623    8.32027718335785    7.17669032276972
C        12.87207145259229    9.27222103850455    6.35905671089848
H        13.45488455667812    9.94068039181319    6.98899962532532
H        11.80869804407152    9.42739889666016    6.57692326044633
H        13.04835830914295    9.55365018730064    5.32454691980899
C        12.60151621865793    6.92767479028241    5.53596203460882
H        12.95522062009853    7.18654353033457    4.54189942405340
H        11.52086072790973    7.05484484366016    5.55436512689343
H        12.82938011718048    5.87990225478245    5.71394971186240

