61
CSD_code = DOCNIU | q = 0 | S = 0 | Stoichiometry = C29H26IrN3O2 | MND = 6
Ir        2.21009139106537    8.93673738672974    2.27404944170620
O         3.32008538119947    6.97315140036361    2.43623570359756
O         4.37679667276972    8.78445448713277    3.05581072333399
N         3.81600078577301    9.31222085935404   -0.26290234225713
N         1.93232680488428    7.97685728740753   -0.35321498767048
N         1.81987871063275    8.97380853785264    4.28000920933888
C         2.71510262743277    8.84063004981645    0.34004908433224
C         4.63005709370329   10.30168450020047    0.40898575073856
H         4.29523266974021   10.40575906354890    1.43798353142435
H         4.54246671389111   11.26553365378669   -0.09623057852073
H         5.67378231822315    9.98529518246010    0.41281627890923
C         4.21066021587498    8.91858238378856   -1.54438445955473
C         5.25067064059696    9.50613628982637   -2.23346971455877
H         5.76786755208210   10.36763177402658   -1.84686612682843
C         5.66103586831584    8.97418464012407   -3.46243152246980
H         6.47468698125935    9.45479747302572   -3.98538748649820
C         5.08096478423794    7.85082777441082   -3.98261223387193
H         5.43892409812187    7.42063552180735   -4.90561909611620
C         4.00690583858133    7.22860120595060   -3.31254842626937
C         3.39167757613735    6.04697506805924   -3.76996006620025
H         3.73722832956374    5.60130909449778   -4.69039467773365
C         2.39641024482647    5.45878660122156   -3.03554785277163
H         1.96939516064013    4.52077280817567   -3.35847795394433
C         1.89760121484232    6.05699949955095   -1.87492531942195
H         1.12293362129021    5.56519626046773   -1.31090430817557
C         2.41249963968762    7.26448200969799   -1.44988087319188
C         3.53821930049571    7.80972110104706   -2.11005164007576
C         0.61652490485348    7.85968894371974    0.16047953244083
C         0.43225328237527    8.35419046806598    1.46284362491152
C        -0.86084676882712    8.30601499683488    1.98616783229760
C        -1.90463240787872    7.80735835750895    1.21322582353726
H        -2.89786427595519    7.77048174061663    1.63923528054832
C        -1.72184366839070    7.39487328617402   -0.09617282177376
C        -0.44265582322726    7.43719902390841   -0.62889146322879
H        -0.29291028155760    7.17375467215244   -1.66447591756360
C         1.64265820222892   10.84421975349074    2.46735408313132
H         1.52956171109918   11.59925284209315    1.69020377181257
C         1.52890006729352   11.24169719599252    3.75014640678854
H         1.33688960516918   12.26133093043583    4.05951479109894
C         1.66186245091424   10.22729189623845    4.76475443302551
C         4.33023142845076    7.54119975912355    2.91288989820456
C         5.51970998493774    6.69937766392046    3.33228335911036
H         5.70339310491273    5.92637579003187    2.58981029036882
H         5.29201378537209    6.21623071217140    4.28145612419434
H         6.39718260587818    7.32869425842369    3.45400569797623
C         1.62713886945940   10.46420161979523    6.14060472972281
H         1.50836545973152   11.47474703690588    6.50004841286154
C         1.75385857081143    9.40580927224024    7.01593537777371
H         1.73354684667307    9.56784407079070    8.08357316236322
C         1.90644701091924    8.12371950287566    6.50038409355527
H         2.00244468556758    7.26851531065994    7.15028430801870
C         1.93410941981714    7.96123184787337    5.12748915276448
H         2.05022031711903    6.97866147987981    4.68830413354266
C        -1.17631833791607    8.79652319846842    3.36981696779696
H        -0.74619552399433    8.13158092770870    4.11622677268891
H        -2.25170678622102    8.83530604712662    3.52602654928379
H        -0.76131992354833    9.78942909338705    3.51872326124937
C        -2.86991778628313    6.90856560843266   -0.92958820806090
H        -3.81978086104452    7.19977629176134   -0.48899515269359
H        -2.84768711456691    5.82095631396638   -1.00346688832472
H        -2.81103499004460    7.31262817289047   -1.93822747667466

