85
CSD_code = DOCPES | q = 0 | S = 0 | Stoichiometry = C40H39ClIrN3Si | MND = 5
Ir      -12.41857839989118   -2.04282739645713   13.99231913600718
Cl      -11.48000581138222   -3.99388933140065   12.83421142258738
Si      -14.74950503408421   -2.51737946235588   13.85193899065245
N       -12.35275737516689   -0.95928310225956   11.08382874782410
N       -10.85451231795666   -0.16007009282742   12.63725364977040
N       -12.44627387187551   -3.00306118283407   15.79273350091935
C       -11.91748288210819   -0.96141266614691   12.35860370982200
C       -13.19710206995095   -2.03303462875407   10.60790629142191
H       -14.20546578455199   -1.68691252048495   10.38773056688169
H       -13.24057424503777   -2.80745996794951   11.36645157267105
H       -12.75361619347130   -2.45122336499415    9.70263709341527
C       -11.95049333773212   -0.01517360323988   10.13643174886602
C       -12.55640090358495    0.11529640159390    8.90359349151085
H       -13.39641572750634   -0.49649445903551    8.62241587134330
C       -12.08343843756531    1.06129559393857    7.98694182203421
H       -12.58120778183202    1.14700465230228    7.03234794854226
C       -11.00469169514209    1.85268617318115    8.26966880752989
H       -10.63029746527570    2.55825210873897    7.54372562236374
C       -10.35473284259760    1.74693689089326    9.51579450394948
C        -9.21189623014962    2.49873965558418    9.85547133318791
H        -8.82451429386335    3.20923939591955    9.14116950886256
C        -8.59366016792462    2.31138446004055   11.06164208055171
H        -7.70020810929631    2.86754355564539   11.30421459237373
C        -9.09986344211662    1.41390920891519   12.00731373378579
H        -8.58781496023058    1.28895520110520   12.94794317316924
C       -10.24615573702085    0.70088714718958   11.72804419081178
C       -10.86126070704732    0.82511125713611   10.46249179824173
C       -10.29938737791076   -0.27377303797850   13.94837442925963
C        -9.79775701598965   -1.50679054101168   14.36249008788470
H        -9.72461168866573   -2.32571931612488   13.66144686959938
C        -9.31331862181763   -1.66039004493316   15.65677099405423
C        -9.31040592208241   -0.56220438223765   16.50673393713897
H        -8.94213044996461   -0.68013344428027   17.51633062352434
C        -9.75088546218285    0.68476236383013   16.08444376046901
C       -10.24944188272118    0.82358598209230   14.79578860651499
H       -10.62544702969095    1.77854693465481   14.46152819735766
C       -12.93640693380792   -0.48814137573909   15.18430772591745
C       -12.79584317297441   -0.79575238962535   16.55310152572327
C       -12.46419668225002   -2.17909974105056   16.86162163584797
C       -15.63048981967851   -2.49245123091379   15.58092163712540
H       -15.19761609308925   -3.21740491594904   16.26307499955684
H       -16.68404994857087   -2.73394150351442   15.47590294263258
H       -15.55468901453133   -1.51712255912240   16.04873010666374
C       -15.08441681946989   -4.31757965665303   13.20803826527202
H       -16.05620792538430   -4.39213308638909   12.73041675266584
H       -15.06450982784536   -5.02226066625979   14.03270074239806
H       -14.33819226523621   -4.64366732384157   12.49339367637264
C       -15.98022833939093   -1.44200353689646   12.75583512735332
H       -15.86643107560564   -1.71254883847980   11.71002530880387
H       -16.97249424296906   -1.76849514041088   13.06453540182980
C       -15.88989756693163    0.03171049621701   12.91194780691903
C       -16.46692695716883    0.66240597662809   14.01017323579012
H       -16.97990069450396    0.06509633785821   14.74853505762221
C       -16.40395547378498    2.03418553854333   14.16092998668650
H       -16.86403984398953    2.50215197305552   15.01976867808216
C       -15.75796348447510    2.81173596135892   13.21409771499918
H       -15.71158484933769    3.88532420412991   13.32753160042989
C       -15.17975539730168    2.20042764776569   12.11516676233522
H       -14.67620644235590    2.79571445562515   11.36553108962356
C       -15.24923330874641    0.82663897321715   11.96719806052306
H       -14.80676493159429    0.37127742026212   11.09444871642268
C       -13.26932982225044    0.82106508623858   14.85404728288079
H       -13.38367765664532    1.09979142921434   13.81743569134145
C       -13.46524197326180    1.78634986991761   15.82555897740671
H       -13.73035673599241    2.79284129176721   15.53498507850117
C       -13.32976080009997    1.46593908185425   17.16811112188759
H       -13.49268916686571    2.21798990580721   17.92731759780747
C       -12.99084143996453    0.17925985080270   17.53124218885768
H       -12.88787452773881   -0.06423241825075   18.57869816913984
C       -12.18481101130877   -2.66931629025561   18.13726964840805
H       -12.17947200055301   -2.00030351235178   18.98239253119002
C       -11.90824215715958   -4.01078174422437   18.31333701459825
H       -11.68861911436658   -4.40103636869847   19.29625814809869
C       -11.92219653699743   -4.84683378907054   17.20542935522651
H       -11.72264291354140   -5.90229703214607   17.29672361383959
C       -12.19563247324551   -4.29538925356363   15.96817371376736
H       -12.20616277243413   -4.90722257416687   15.07685274350921
C        -8.78627559638429   -2.98768633553627   16.10773839733193
H        -9.18962289417995   -3.79046550965251   15.49497760998133
H        -9.04285888157760   -3.17359081136932   17.14941720046246
H        -7.69938602085506   -3.00778755775753   16.01993329784944
C        -9.71687605016417    1.87063149848718   16.99731336829885
H        -9.21348469523644    1.63181667081192   17.93046212162553
H       -10.73354730245452    2.19205254073378   17.22001445060723
H        -9.19998507034157    2.70263451413671   16.52174370487906

