61
CSD_code = DOCPOD | q = -1 | S = 0 | Stoichiometry = C28H18CoN6O8(1-) | MND = 6
Co       -0.38589957835561    2.82783517375904   12.50181183606790
O         2.36767398215139    1.69485223941409   10.54565635807602
O        -2.48173792285404    5.57401043412001   14.31245837277327
N         0.54647828917607    0.40839717651871   11.02360343970748
H         0.13204477686574   -0.51996477182815   10.93152896655764
O        -0.81078166993917    4.21370191392889   13.74826593711603
O        -1.91097323911727   -0.14467474947559   10.40995452602471
N        -2.13413488285372    2.86859269525982   12.15124841516038
C         1.84612048566149    0.60751088689590   10.71588139884563
N        -0.41463133607451    1.38988241705364   11.20403839157254
C        -1.65280278210578    0.95876465080355   10.90324228545873
C        -2.66562564743249    1.95555111265232   11.34065229627501
C        -2.01764895877431    4.63903070463345   13.69049803713248
C        -2.86944528495936    3.80846027068357   12.73206216264304
C         2.61839785900433   -0.67175679535315   10.65560342083748
C        -4.02649932910650    1.95583023874628   11.07346138131061
H        -4.44221661447507    1.18975561576633   10.43748498768281
C        -4.81130462961106    2.94291352146165   11.65360421853221
H        -5.87508202805965    2.96488455233079   11.46376631188280
C         3.54546636233799   -0.85281119238146    9.63583739364551
H         3.66859059039658   -0.07116009907601    8.90126827593107
C         4.12739858023689   -2.99689792398638   10.53557772641285
H         4.71175401277381   -3.90517375517549   10.48716848601678
C        -4.23232358412851    3.88555886461085   12.49193231271335
H        -4.80912733702140    4.65504779715014   12.97937752787422
C         2.46870195126598   -1.65048637563433   11.63313279792862
H         1.79457380339408   -1.49085340552414   12.46175523805788
C         4.29034494609010   -2.01601700866749    9.57095106018020
H         5.00252191360347   -2.15729502364739    8.77028518188740
C         3.22565301380721   -2.80739511232519   11.56992539128899
H         3.11371576475238   -3.56265294761857   12.33441852447305
O        -3.13946931831018    1.69484724621499   14.45791678725895
O         1.70991200097650    5.57400547362615   10.69115992827684
N        -1.31826497368963    0.40838730715949   13.98002631184853
H        -0.90382131966943   -0.51996459660128   14.07216655708023
O         0.03896253906349    4.21369315997101   11.25535750964830
O         1.13919770701566   -0.14470217587638   14.59360291620095
N         1.36234026631158    2.86858560736303   12.85234917603441
C        -2.61791255226738    0.60750680050157   14.28772391508463
N        -0.35715477245590    1.38986872524665   13.79957062010074
C         0.88102267428024    0.95874292564683   14.10033063857332
C         1.89383873293124    1.95554311060926   13.66293803139407
C         1.24584437693200    4.63898757222721   11.31307459195168
C         2.09764665909118    3.80845129722581   12.27152890972861
C        -3.39020048861391   -0.67175458060819   14.34798187540123
C         3.25471025176537    1.95583998645771   13.93013695559292
H         3.67044829483830    1.18975567009633   14.56608945548948
C         4.03951210302216    2.94291912177257   13.34998370709439
H         5.10328702575112    2.96490211459937   13.53984116251947
C        -4.31731156438453   -0.85280418750258   15.36771594011972
H        -4.44046889820954   -0.07113491653559   16.10225946479570
C        -4.89917203482593   -2.99691697322280   14.46798252922169
H        -5.48358506285683   -3.90515746765257   14.51633626330840
C         3.46052746667348    3.88555314424230   12.51164596840818
H         4.03733049743335    4.65505668432311   12.02422400867874
C        -3.24045846760711   -1.65048899302088   13.37046499149953
H        -2.56625311405110   -1.49089183470282   12.54190103188179
C        -5.06216543492478   -2.01602575045598   15.43259784862941
H        -5.77443293032372   -2.15725718924476   16.23318593272845
C        -3.99739350316454   -2.80740893459990   13.43366115081047
H        -3.88541766731439   -3.56267945233535   12.66919316054325

