29
CSD_code = DOCQER | q = 0 | S = 0 | Stoichiometry = C10H18Pt | MND = 6
Pt       -1.77951279808713    6.70590303142672    4.68781865890227
C        -3.39874163057243    7.23353813094861    5.81575462056331
H        -4.14105858733953    6.44363298021487    5.94531526694929
H        -3.90791921227962    8.08030827077509    5.33850226633641
H        -3.08568526236737    7.55819165595308    6.81426194227419
C        -3.12114517567245    5.67293118394592    3.54530878990901
H        -4.10317368415054    6.13851144106076    3.44661573245674
H        -3.27649836447421    4.68302434783374    3.99325168222386
H        -2.72664572531510    5.51875308228861    2.53473993495721
C         1.04766293371095    6.44625682038804    6.03968716980834
H         1.35751683810429    6.05397336425228    7.01128813795350
H         1.86014533674131    7.07677463898544    5.67839838927751
C        -0.19673906174214    7.27611997387349    6.22841037535006
H        -0.69923098114617    7.13073056314049    7.18245762840056
C        -0.53609958000116    8.37338261336923    5.48997401921253
H        -1.25873441981288    9.06962654691738    5.91363985186828
C         0.21061670578940    8.93579448753322    4.30825627657350
H         0.99666721829473    9.61072099550359    4.66520708192191
H        -0.49553460838424    9.54297025330290    3.73236659371763
C         0.82492404439276    7.88075981960590    3.36825164663952
H         1.00202524179875    8.35486124443734    2.39987172620596
H         1.79406842465420    7.54904101424818    3.74102969913179
C        -0.07764577327372    6.69043603943050    3.16522004302204
H        -0.58767691341673    6.66600667350364    2.20453984958589
C        -0.04920557227184    5.54059176838496    3.90082747692423
H        -0.49919923189236    4.64784258203748    3.46859931056958
C         0.82330587344702    5.25021915864311    5.09446243362347
H         0.34525129636822    4.44538809435832    5.66256803226804
H         1.79106266889794    4.86840922363705    4.75037536337339

