71
CSD_code = DOCRUJ | q = 0 | S = 0 | Stoichiometry = C27H42NbP | MND = 12
Nb       10.46431430370927    3.46177611683413   -0.21305815535176
P        11.80853796451356    1.22293496725968    0.23815573973912
C         8.06932895459902    0.74476258313985   -1.41487660869125
C         7.88829826671564    0.35238271789614   -0.15026512575221
C         7.63719679655665    1.31678554049845    0.89213614967083
C         7.78511510748239    2.63287633704964    0.62458902657484
C         8.26454225367629    3.11484488750902   -0.66499649967828
C         7.90027810658038    2.18759427643642   -1.83145162323780
C         6.41891971332618    2.37991789825402   -2.22086250860805
C         8.76551963873321    2.48872299156830   -3.06189460796197
C        11.08503622127829    4.95077459121372   -1.71667533240083
C        12.07227848207618    3.88591110585163   -1.71544201010915
C        13.25367655630475    4.11755081167571   -0.90686081373799
C        13.34671186471160    5.14341687143929   -0.04826898445601
C        12.34115322596320    6.25727776133330    0.03424274817987
C        11.54309125903945    6.33523901367215   -1.29163479717255
C        12.47787214438952    6.90198396080829   -2.37718260943400
C        10.32809538065932    7.26496059452124   -1.19360832403456
C        11.44928684187902    6.21348709713826    1.30948409653719
C        10.43740483844635    5.06740848447923    1.32326606233502
C        10.80142801495882    3.82630439001523    1.97716536871318
C        12.11263652019944    3.74044626622349    2.60552324090050
C        12.84097967845318    4.82821962109584    2.86008961691405
C        12.28136152810105    6.20385204477253    2.61866443294424
C        11.33710013141680    6.53578237899509    3.79161491964501
C        13.39334618493743    7.25709263046868    2.62163506241786
C        11.58927207777425    0.05397975083038   -1.16528268668731
C        11.04126552810916    0.23813978907231    1.58582768044657
C        13.59178815051591    0.92157184239478    0.59353533999714
H         8.20445018922740    0.02353094258283   -2.21130990962967
H         7.92103518158843   -0.69723072718261    0.11568614629903
H         7.34248060795661    0.96298373422602    1.87058329293797
H         7.58804862607613    3.37018406745849    1.40202122871250
H         7.87431624966784    4.12512374097254   -0.87577104345879
H         6.13515210400287    1.68743573380048   -3.01200697955329
H         6.24697791198834    3.39685907372017   -2.57019580320519
H         5.78279569229466    2.19560286180766   -1.35732317390521
H         9.82064095065822    2.28269827229534   -2.85558707394120
H         8.65774762884314    3.53448543801296   -3.35049604444087
H         8.45422991566459    1.87019474507248   -3.90330526571447
H        10.50252149244758    5.00789152789785   -2.64540528475763
H        12.22708475958606    3.29867982627309   -2.62918534247059
H        14.07389472065731    3.40981470482531   -0.98968980674479
H        14.23125104961570    5.24306385324129    0.56667640900143
H        12.90575454503828    7.19473947364740    0.10891811643614
H        11.98078009110727    6.89398306252324   -3.34546056689404
H        13.38259114750019    6.30358152074704   -2.45080121031411
H        12.75816187334289    7.92850160759652   -2.14587095534301
H        10.61170173567386    8.23644181976201   -0.79335329404259
H         9.90864538460953    7.41977151116392   -2.18646676740955
H         9.55448481190183    6.82863205208121   -0.56503603403536
H        10.89306421712383    7.15721292705862    1.30909286293056
H         9.42488699173567    5.42698989313387    1.55237942914506
H        10.01355779586130    3.31778600089685    2.55179169690159
H        12.47536801033608    2.75736813931213    2.89657759307926
H        13.81602308427118    4.76044577130513    3.32188724353577
H        11.87908667669886    6.49022577616201    4.73433045305727
H        10.51696262174153    5.82528333280204    3.83700784060679
H        10.92710028367816    7.53774659143290    3.67769094545689
H        14.19512365589325    7.00301176793618    1.93460626676081
H        13.82124016318413    7.33233053611471    3.62016197318143
H        12.99600862489518    8.23334335241332    2.34988712200578
H        12.08566234529635    0.45723129316436   -2.04776067449591
H        10.52337934729427   -0.04133015180048   -1.37020025448288
H        12.00960482808831   -0.92305088320040   -0.92707049331159
H        11.26507750417299    0.69940736122404    2.54566383532114
H         9.96222599649279    0.23908695759720    1.44288619832232
H        11.41470822481919   -0.78601081376900    1.57622081429992
H        14.17718038833456    1.13894489012548   -0.29734009051446
H        13.73789105907122   -0.12028218756140    0.87979510929781
H        13.92386577643463    1.57619328059785    1.39590269366588

