90
CSD_code = DOCSAQ | q = 0 | S = 0 | Stoichiometry = C35H53HfP | MND = 13
Hf       10.70582958959837    3.37486425571759    1.25857537177365
P         8.58912545995969    2.49740705095420    2.94045659324991
C         9.12176895475653    3.25505031014122   -0.70743443007472
C         8.50775043136193    4.11730804320633    0.16250817466365
C         9.11809527647495    5.33643888906169    0.53792234662892
C        10.43849107553337    5.54286741009923    0.15235470156165
C        11.10178859575003    4.60221291964932   -0.65586851372865
C        10.21578200263191    3.80827859285125   -1.59631476868635
C         9.60124637715807    4.74899604535340   -2.66325813339204
C        10.94518458255907    2.69094587773485   -2.34637140625981
C        12.36041097742131    2.11575100641449    0.70620940551674
C        11.26117068121384    1.26257644372357    1.11765021584261
C        11.26553324864301    0.80812497970658    2.47699965251440
C        12.10426378729687    1.30967709247254    3.40273642030853
C        13.19952665467406    2.29084174322313    3.09210542446389
C        13.58430131300855    2.16894116740127    1.59463145935515
C        14.35376777379214    0.84303182034666    1.41820306732840
C        14.49939410112334    3.29800050671406    1.10541458050909
C        12.95403453827073    3.75957942105761    3.54828342323228
C        11.81939736007655    4.45409267402551    2.78417494053050
C        10.66557860964320    4.84938460428920    3.57444296902411
C        10.42333770568466    4.42584651110130    4.82239341958254
C        11.42661527817785    3.60549039483109    5.57330083175676
C        12.85361211837974    3.96493548870122    5.09186878071497
C        13.17899662012295    5.43684493872951    5.38252796837613
C        13.90988044880659    3.11951676072843    5.81588399388664
C        11.18388128010332    3.70439902533461    7.11029098605062
C        10.33536844112330    2.55270155619815    7.55609722026448
C         9.16611007289504    2.66629433187834    8.16106124199496
C         8.51539444855593    3.97396061192917    8.50960221012872
C         9.41390853533342    5.12350063332985    8.15117730587009
C        10.57730244534685    5.00730041904261    7.53429026232566
C         8.22543064123762    4.00768135433278   10.01776223388273
C         7.19082568239928    4.10251415679572    7.73867878572772
C         7.62661211405231    1.22824775552138    1.99778802908484
C         7.20712547261315    3.63962635496996    3.39461616650175
C         8.63578694080373    1.59777035444633    4.55052654432894
H         8.61663470068208    2.35326836695200   -1.03843161439312
H         7.53314377308283    3.87020841825791    0.56896615620031
H         8.57966507760683    6.06154688750930    1.13328397343314
H        10.97427880285229    6.41316443057910    0.52032505305834
H        12.10082247068629    4.83981128558090   -1.01107635967679
H         8.87572860131924    4.21414180078803   -3.27391652094499
H        10.38152311552084    5.14319556382541   -3.31138956669082
H         9.09634395523334    5.58361567089825   -2.18255947364205
H        11.88520828856852    3.05529628877423   -2.75683139098595
H        11.14429609389689    1.83839015608877   -1.70365166432511
H        10.32903988408437    2.34390801146326   -3.17492061400486
H        12.63353755011216    2.08613891677200   -0.34523485329406
H        10.71882532992282    0.67340600327066    0.37998768539611
H        10.58300692975487    0.00891628893621    2.74895114869055
H        12.09735750681935    0.89296120798625    4.40107199889297
H        14.08282725759924    1.95761739324301    3.64828976229889
H        14.56908687673625    0.66589783022191    0.36683100327147
H        15.29726871645850    0.87334315514368    1.96000310616587
H        13.76447259016628    0.01096785200094    1.79326739610229
H        13.95123780253651    4.23377264940224    1.02545221152617
H        14.88256221630674    3.04660194809859    0.11813292296438
H        15.35107955133879    3.42860035499223    1.76970105806845
H        13.88256283083398    4.27316127785645    3.27962124608073
H        12.20965848688444    5.31284639851317    2.22196059626735
H         9.97366502205447    5.55253398500403    3.11466810043412
H         9.54373700725311    4.74610723544338    5.36136195617017
H        11.28829709909767    2.55349901320526    5.30261463010596
H        14.16826823197248    5.68454127871110    5.00135751554096
H        13.18112060497375    5.62560288129459    6.45321101629600
H        12.45453637128643    6.09657272411676    4.91449092505342
H        13.63450374500884    2.06883678573994    5.84690210583836
H        14.87337457848196    3.21644522379646    5.31936558747233
H        14.04467491196222    3.46261897191936    6.83986610531780
H        12.15452398808059    3.60726216411074    7.61086638057443
H        10.74210000100598    1.57070201044913    7.34647995864222
H         8.60888233284948    1.78246436452994    8.44556406409052
H         9.04382413353186    6.10063805988889    8.43479120042989
H        11.15208348208707    5.89378287612757    7.30738822106341
H         7.56866932752529    3.18634113397221   10.29801411196201
H         7.74468186877380    4.94484510418798   10.29114998519120
H         9.15322665699797    3.91719801903304   10.57910966918477
H         6.52321806584208    3.28090961029893    7.99134244059546
H         6.69703574540992    5.04016887050006    7.98598662831761
H         7.37554337880124    4.08016501776603    6.66665050448483
H         7.34116960804179    1.60711971336908    1.01970922577912
H         8.25202401577303    0.34877101950693    1.85533865180379
H         6.72867424235959    0.94301512332647    2.54647030469533
H         6.82365722531807    4.16832409275293    2.52661225447559
H         7.58464054098904    4.37427174956517    4.10201031931874
H         6.39564469623424    3.07803155312229    3.85728346439195
H         7.65212699803914    1.17930513262989    4.76395736536499
H         8.91334942347992    2.28440700759583    5.34543239768509
H         9.36654865073627    0.79593961899894    4.51418417418072

