111
CSD_code = DOCTUM | q = 0 | S = 0 | Stoichiometry = C49H54CoN7 | MND = 4
C         0.83202609378332    1.83540506202812    1.06806784382428
H        -0.07492740618597    2.12093885056023    0.57457238484295
C         1.83101783563917    1.00755417628159    0.67485121097760
H         1.95085283954515    0.43456811059835   -0.22119794156269
C         3.96939870822697    0.33894294211477    1.85196059928014
C         4.59870218987014   -0.41882062157511    0.94247136747933
H         4.19343617973108   -0.55615592234446   -0.04646249474238
C         5.87704546522070   -1.14062797382623    1.28087726914984
H         6.58382438730465   -0.99754352172070    0.45079967525830
C         6.44539650926795   -0.59363773312510    2.56260289021523
H         7.44448078900100   -0.88044182163157    2.84592098153287
C         5.70441020750648    0.18004814872995    3.37098737625644
C         7.19498396083634    0.51574156730427    5.39370809730304
H         8.02376662709387   -0.09348349437700    5.09788355298611
C         6.99250238112623    1.23594393443791    6.52502660334703
H         7.60915487816854    1.36854835003595    7.39076596917816
C         5.18967876973304    1.50892433359059    5.23450109189592
C         2.34558131122765    1.80325401265969    2.71035007821058
C         0.37626505039667    3.24375566758004    3.04007670843577
C        -0.44833396770266    2.78335126770274    4.06767402878841
C        -1.24245057242561    3.70969074313322    4.72905920835387
H        -1.90164641856801    3.38396627092028    5.51714018216713
C        -1.19028365195961    5.04940786633425    4.39916488833322
H        -1.80823295859561    5.75817061896974    4.93041738579654
C        -0.34071441336788    5.49150804009180    3.40317631230239
H        -0.29625500575410    6.54422250223947    3.17594039938965
C         0.45227711817655    4.59693576107736    2.69938352922577
C        -0.48749588656189    1.31859041537784    4.43454136006874
H         0.45469075518705    0.85814540013652    4.11959939236823
C        -0.60580814702092    1.10916089367491    5.94375603013928
H         0.11344087523346    1.73997142758739    6.45976386727564
H        -0.39599767713816    0.07038159982064    6.18813916895851
H        -1.60489852039135    1.34417768267252    6.30215641453800
C        -1.63944658564843    0.63092692747100    3.69571530252974
H        -2.58886962647584    1.08810793577836    3.96724072200007
H        -1.67599637375067   -0.42464614766160    3.95558926935027
H        -1.51388032585065    0.71604674038509    2.61805971836077
C         1.42778827757302    5.06581893640693    1.64378476516152
H         1.56722049642258    4.26519174469716    0.90947467087652
C         2.77885919255061    5.33843559651947    2.31331203082786
H         2.67085265897984    6.10127102801729    3.08058556938942
H         3.50373059959328    5.67945699345269    1.57743392143538
H         3.16100972867594    4.43397099526440    2.78699719640851
C         0.94696512715862    6.30215478168597    0.88423750187219
H        -0.07221280656333    6.16518917441881    0.52875056215378
H         1.59071500766853    6.47598119288218    0.02453179214895
H         0.98324107207590    7.18920359829280    1.51112785345628
C         5.14387954309419    2.66186721949483    7.38113968365634
C         4.27974350784023    2.07606400141862    8.30781308086073
C         3.60782767350029    2.91308532200810    9.18740247343386
H         2.91453692357883    2.49667043996897    9.90058017820411
C         3.80468154247072    4.27971999671796    9.15054430163647
H         3.26268459800831    4.91815326473146    9.83228876880357
C         4.69022618037784    4.83618446355396    8.24784794378416
H         4.83266329052466    5.90471849983049    8.23629327149213
C         5.38105147879814    4.03706065052147    7.34829741934602
C         4.06581061950423    0.57989625376752    8.33175448800693
H         4.89998226088711    0.09648811754855    7.81249153689571
C         4.03401089495860    0.02818334427834    9.75870316931310
H         4.89081039610379    0.38369638574583   10.32743275171696
H         4.06390900036522   -1.05904513122613    9.73342827788911
H         3.12646046300052    0.32575109162571   10.27675905878975
C         2.77564944898706    0.22449209127077    7.58890857219336
H         1.92871427471012    0.73892527985978    8.03578609063904
H         2.60012462717235   -0.84829678925078    7.63372088853619
H         2.84437448812284    0.52328756259046    6.54005330575496
C         6.33065830300125    4.63077350269450    6.33318792632278
H         7.03213122348132    3.85296181947195    6.01230250052077
C         7.15613970140497    5.78263457705488    6.90880395015728
H         6.54331295227179    6.66571199640897    7.06771763620221
H         7.95007324458464    6.04796372274464    6.21387151512649
H         7.60840377363539    5.49684576169770    7.85626147890564
C         5.54228073167685    5.09460724946169    5.10545671411829
H         5.04691823870588    4.24691736695136    4.62971765889296
H         6.20852274066579    5.55920946330321    4.38185525415351
H         4.77923969170537    5.81263409483149    5.39523945952551
C         5.61518919117918   -2.69528338848374    1.38345043888040
C         4.88723114765134   -2.97015999258815    2.70712964114047
H         4.46394608681464   -3.97110650610325    2.72617822222458
H         4.09052119571125   -2.24687447518151    2.86369723326143
H         5.59035495006915   -2.88158197753626    3.53317219729195
C         4.79191298262763   -3.08746218304110    0.17170155049161
C         5.43065665951612   -3.25281501836865   -1.05445122758846
H         6.50378074040768   -3.13958643223709   -1.11468227934411
C         4.71570739773939   -3.56460429344471   -2.19546103039834
H         5.23397067239451   -3.69132481422686   -3.13518720485597
C         3.34031916282684   -3.71243133517198   -2.13617514681566
H         2.77886161949556   -3.95652365375744   -3.02627621257484
C         2.69229342782560   -3.54104726428718   -0.92617111769092
H         1.61796531849897   -3.64789546623768   -0.86865941024513
C         3.40989945212226   -3.22964522496755    0.21607246847874
H         2.87709869263127   -3.09072252077054    1.14357172118853
C         6.88329358521208   -3.53524926940866    1.36259867205733
C         6.73697690718560   -4.92050625934403    1.42283911490687
H         5.74577046685016   -5.34812374394685    1.46422750110605
C         7.83219638724713   -5.76153596063650    1.40999039349281
H         7.68790390718631   -6.83140787183481    1.45776227263723
C         9.11110659990330   -5.23650105951790    1.32984223878569
H         9.97119045573895   -5.88989148657556    1.32049977903831
C         9.27225232191179   -3.86659441093602    1.24947934072953
H        10.26346416269443   -3.44225887773855    1.17155253453557
C         8.17062487681203   -3.02560422701506    1.26162100737903
H         8.34105273863467   -1.96443670521106    1.17683551381773
N         1.16479599442455    2.31417086547195    2.31080269243029
N         2.74620267827873    1.00656149922206    1.68596326994544
N         4.44937309385312    0.62819933985230    3.09321070110589
N         6.08658347035711    0.69617448686402    4.61942044095158
N         5.76327072404827    1.83396791928642    6.40833668589008
N         2.79713149973038    2.82972221870317    5.17401677804533
N         2.21419512629294    3.50924286190451    5.85877476275358
Co        3.59121974397528    1.81696955348543    4.18904079455768

