52
CSD_code = DOCWUO | q = 0 | S = 0 | Stoichiometry = C21H23NNiO6 | MND = 6
Ni        3.24985194842464    4.45819446213884    7.68050203050255
O         4.55932450094242    3.67711117529302    6.68864312187248
O         1.90492634285354    5.25904104415314    8.69436814586650
O        -0.24142583605559    5.80897208172466    8.67181723864594
O         2.61355820006648    2.33347267166148    8.68665355356394
H         2.00951149780407    2.66948846250149    9.35739065445466
H         3.45196500640861    2.14872499486607    9.12211614358342
O         4.44381738544860    4.58710854121270    9.47252015206721
H         3.77667943990523    5.07980631549369    9.97065174378266
H         5.09285171055890    5.23486447423411    9.17209898542199
N         2.01168104203425    4.33774206259226    6.33602701135841
C         4.47454361271552    3.10851549534263    5.54263981948913
C         5.67674745389763    2.54904922684622    5.00326691871131
H         6.56874625152424    2.64048010135007    5.60517239360982
C         5.69072842184957    1.92391556955167    3.80328264823151
H         6.60977265126508    1.50359853948620    3.41877996048922
C         4.51603325865490    1.80254093097648    3.01741726049389
C         4.55976707360018    1.16683061336943    1.76542711301448
H         5.50422423603100    0.76864124396258    1.42193802759423
C         3.43522098309710    1.05439612735560    0.99213778441300
H         3.47377689522043    0.56658331732894    0.02965624932745
C         2.22967675309501    1.57971943844335    1.46214326202911
H         1.33893668349052    1.49416525223918    0.85677387489363
C         2.16186410411656    2.20210085691491    2.68261967526171
H         1.20755061615195    2.59255920926984    2.99841796971994
C         3.29639690958108    2.33754445403199    3.50504862966755
C         3.28105733895641    3.00060700525140    4.77875969760406
C         2.09680444615940    3.60445259522277    5.27602449650661
H         1.18391104245769    3.45920590852250    4.70439236558962
C         1.98251261939550    6.02103178351731    3.70493346867556
H         2.88692115725712    6.23881166984672    4.25594839274406
C         2.06022182221468    5.68075098082580    2.36602175236237
H         3.02252411396335    5.62765117563273    1.87845935616670
C         0.90660767723922    5.39823391746535    1.65571125105664
H         0.96630608058681    5.12696983587954    0.61234829343898
C        -0.32355089845572    5.46290489969896    2.28944276249959
H        -1.22733406253291    5.24724396670369    1.73819655262201
C        -0.39861856467911    5.79598656721001    3.63001356757305
H        -1.35883581875374    5.83582960925508    4.12456553449929
C         0.75368389982491    6.07902926352290    4.35456986941091
C         0.68613298713470    6.34350118849964    5.82671483688283
H        -0.25011741241581    6.83032508001068    6.10282478740744
H         1.51851467136383    6.97720525918708    6.14030046833305
C         0.76650687226338    5.01934205193528    6.62586710876095
H        -0.09881544854448    4.39220111001646    6.37370263407722
C         0.76381692122332    5.39489533117053    8.13354663686875
O         4.64788255965029    6.46918143439299    7.37966274124326
H         5.22794287969584    6.15563850054699    6.67371641106413
C         4.24565062457461    7.79789632978885    7.10496498587773
H         3.79577354385702    7.89216940572542    6.11309579157360
H         5.09907095691575    8.48046946416379    7.17586056352258
H         3.50620284796871    8.06649900365950    7.85744530557169

