103
CSD_code = DOCXOL | q = 0 | S = 0 | Stoichiometry = C48H44Br4N2NiO4 | MND = 6
Br        3.47659734994213    2.07234867005749    1.43754515130748
Br       -1.67628621924966   -0.00127752573186    2.60760405883134
C         1.18971917056956    2.64281353684442    6.17953179331884
H         0.38298254268310    2.29014264648663    6.82856475559752
C         2.89840129317794    2.25352810450261    8.75074697633025
C         2.14305467485070    3.42417229282073    8.15507070661178
H         2.69857184813402    4.33177312374832    8.40851919677506
C         0.75078939661838    3.59523607615866    8.73296818149987
C         0.91744199799949    1.14120047621564    2.24532733720967
H         0.86328905010795    0.70971150919914    1.25750610978944
C         2.01737049347905    1.85560047586234    2.63627572373868
C        -0.13177252316074    0.97674917378826    3.14950489243919
C         0.22373824053877    2.75361802309764    9.70097407920021
H         0.80435896388389    1.92063275619137   10.06939784563676
C         2.79353511139712    0.96465000368709    8.24531177216582
H         2.16642557684740    0.76570500919091    7.38716175799720
C         3.70949485657033    2.47475117669812    9.85846139687712
H         3.78468467088430    3.46956675676328   10.27202909936331
C        -0.01188732817302    4.66661076241253    8.27685916657020
H         0.40496873641763    5.31906955640906    7.52416106973247
C         3.48953053703500   -0.08029716957240    8.82986982781024
H         3.39840677402344   -1.07774245168892    8.42411063405207
C        -1.04828910799445    2.97942236227724   10.20232000217434
H        -1.44867135147120    2.31865758451127   10.95701574486907
C         4.40336544556648    1.43127858731616   10.44441840342281
H         5.02942484210275    1.61911615308409   11.30432020106146
C         4.29853176306961    0.14975502872024    9.92896202926543
H         4.84214237182085   -0.66578847962192   10.38295266655049
C         5.36267704330481    1.44515939121173    5.81554170279850
H         5.18863052884751    1.50218524529565    4.73897801520043
H         4.58770424840085    0.81218036442351    6.26983836239204
C        -1.28123435335508    4.88709108719473    8.77398777347899
H        -1.86531404413542    5.72159130737862    8.41398342410945
C         6.24326082481743    2.93536719510781    7.37081256884386
H         5.74999546558607    3.28475995710564    8.28276510439143
H         6.95694983230239    3.70251157021537    7.03989696599980
C        -1.80341930491362    4.04198858137759    9.74047724470979
H        -2.79445778963983    4.21426347702541   10.13302130249846
C         6.75147911575732    0.94078980317550    6.19088683620358
H         6.80462929070748   -0.14464051607131    6.21645284865497
H         7.49788170680603    1.31844537880182    5.49066627018160
C         6.93334486830448    1.58493219737128    7.56285840675927
H         7.97601583898645    1.69567407385476    7.85070918182218
H         6.41273061585618    1.00292107092430    8.32408237255213
C         2.14721175953798    2.47128078945018    3.91443689528645
C         1.07320677516986    2.22297148452210    4.82005683601196
C        -0.05130817456578    1.49166268122941    4.41968495797755
H        -0.85597181239227    1.33250462072913    5.12270487046744
N         2.14485721905049    3.32547424565069    6.69942153093388
Ni        3.52472153281759    4.28766857095969    5.65677046703620
O         3.17104079684383    3.16919761847469    4.18471479462451
O         5.26723019156879    2.76090178028384    6.34903553571256
Br        3.57260422242703    6.50336074682891    9.87586885650986
Br        8.72616813034261    8.57565366345029    8.70648146499941
C         5.85994492934290    5.93225363527776    5.13419911985772
H         6.66676037418002    6.28484349308502    4.48522050718685
C         4.15137004775020    6.32215859567677    2.56303453910266
C         4.90649084064766    5.15129273490085    3.15856244453267
H         4.35081079750493    4.24382623264220    2.90498953389754
C         6.29873975864700    4.98008011589422    2.58066535130177
C         6.13212321077113    7.43379111247399    9.06842248812416
H         6.18623633404497    7.86530326275423   10.05623596344011
C         5.03207648711242    6.71964080584171    8.67734513819677
C         7.18150550892130    7.59796789844455    8.16438995809042
C         6.82598550691728    5.82180612055848    1.61285828604636
H         6.24552842499517    6.65496823378390    1.24457573257766
C         4.25631798428043    7.61091744479257    3.06875674204680
H         4.88332218260323    7.80961090810335    3.92704235213181
C         3.34041057280375    6.10126430650789    1.45515543917855
H         3.26516906920464    5.10654241096360    1.04136799293531
C         7.06121361506378    3.90848906889332    3.03660376069127
H         6.64420581052868    3.25595285807369    3.78915043582160
C         3.56052942356979    8.65607217642142    2.48432027755105
H         3.65171381844979    9.65341938561910    2.89030651426068
C         8.09800298097825    5.59589155620144    1.11153723935316
H         8.49853761345878    6.25674286411423    0.35699786875807
C         2.64674768582667    7.14494461685636    0.86932247967800
H         2.02079129241130    6.95736489788091    0.00928922772444
C         2.75165859058595    8.42634790684273    1.38506522232730
H         2.20820763934839    9.24205216233243    0.93117285017338
C         1.68620707409621    7.12969459707365    5.49732878690931
H         1.86009224099134    7.07281116162567    6.57392633655211
H         2.46114174406605    7.76276483271192    5.04308820413941
C         8.33055273588062    3.68789911965375    2.53950236498112
H         8.91447743247194    2.85323272475388    2.89937428640305
C         0.80627239979389    5.63924684794370    3.94193279403210
H         1.29987168434404    5.28997624948918    3.03011511979547
H         0.09265747604368    4.87194545521064    4.27263584672730
C         8.85293189736892    4.53310864804979    1.57321098365866
H         9.84396463550783    4.36074995819033    1.18068922045803
C         0.29738344832950    7.63378804015819    5.12169743802986
H         0.24401046498388    8.71920880748829    5.09609079365853
H        -0.44908399761622    7.25598449425687    5.82177117746629
C         0.11596231497177    6.98954527059768    3.74971349964387
H        -0.92662388653622    6.87858058718550    3.46164615730093
H         0.63661342930970    7.57164497541694    2.98858251959275
C         4.90228846777877    6.10393145752839    7.39919292155654
C         5.97645930785861    6.35199939316781    6.49370446501009
C         7.10108786973432    7.08306170905938    6.89420358239554
H         7.90586789363354    7.24204549930017    6.19127752943474
N         4.90469855143280    5.24980776376978    4.61422193651239
O         3.87835304376571    5.40622182830341    7.12877532754128
O         1.78195956572348    5.81390516874254    4.96400607288472

