71
CSD_code = DOCYOK | q = 0 | S = 0 | Stoichiometry = C27H26N5O9P3Zn | MND = 6
Zn        5.22736032047916    4.91244032700213    9.84453588617312
C         7.02208407664429    7.54798810818849    8.32318581301385
N         8.36140701999908    6.98446953829711    8.47077086872607
H        10.51699547933011    7.11999462067199    8.03756789938924
H         8.40253930048750    6.12639662942593    7.91789593746862
H         8.50247071796253    6.73672942664158    9.45057178391705
C         7.03950329412034    8.87438271969915    7.57056988786318
H         6.16828805296853    8.90887756541179    6.91198538259696
H         6.94434917343573    9.69545223407322    8.28642260950502
C         8.32781548853820    9.03075590687506    6.79378338321383
H         8.34294957531347    9.96973572691537    6.24353939355633
H         8.47786432811145    8.20602193609600    6.09951276593690
P         6.25451872905113    7.82513940226564    9.98754034083986
P         5.98619767654671    6.32881197739503    7.41209424530741
P         9.72549839293828    9.09410197749864    7.97513947830673
O         5.89165530027728    6.47426277535964   10.59140323255516
O         7.51808211146526    8.25959175042492   10.88580213691488
O         5.18413088174206    8.84011102053453    9.95763037000514
O         6.07350970900655    4.99860791766203    8.14357194568658
O         6.93207968888017    6.08845154868014    6.08788820319470
H         6.42374753177414    6.40512116360041    5.34474424934795
O         4.66092896692818    6.80483380647022    6.96457557889785
O         9.50224875927657    9.35561733568903    9.41246381418827
O        10.82007779088708    7.95082929263169    7.67336633579951
O        10.51676867656801   10.33748517967740    7.32215859067663
H        11.12922068783172   10.69373750124634    7.96638534499186
N         4.31207322751664    3.12735508632804    9.08025638566500
N         3.38704532985936    5.63244944515102    9.28761322864379
C         2.98041596626388    6.87694984419772    9.39131783808134
H         3.42419929595663    7.46887327232968   10.17844989011414
C         2.06200349167942    7.44698584580078    8.50197299065277
H         1.79405976021553    8.48441609639204    8.61911396202181
C         1.55966963965885    6.68779116036889    7.47670784552985
H         0.87140123331054    7.10167164749602    6.75344760176732
C         1.97356859487228    5.35023352625047    7.35162947054524
C         2.90645034437278    4.87283976736536    8.29241921812394
C         3.40180674073286    3.53411948113668    8.18400060728077
C         2.94255611125929    2.70609440638777    7.13483792786433
C         3.47782926638948    1.41054677435709    7.05541031654607
H         3.15896690036369    0.74836883920007    6.26286230868276
C         4.40676528455652    1.01174812686527    7.98610659839439
H         4.84156080952369    0.02488023505073    7.95182323345663
C         4.79687375645628    1.91215066638175    8.98191836531763
H         5.52940684012319    1.63322597764727    9.72593618213112
C         1.52749983582934    4.48598085820183    6.31147043364706
H         0.81785510003214    4.87520336403739    5.59578957526550
C         1.98991945709024    3.21634495164193    6.20743832591883
H         1.65730946857920    2.56770409450333    5.40987938003827
N         4.60310379793575    4.46891252684332   11.88706701552442
N         6.94617831890169    3.93577730650188   10.69605227102594
C         8.08523939999961    3.72735162333059   10.07622268891447
H         8.01023116481989    3.46466883569193    9.02995139143210
C         9.32921711114594    3.84976592769031   10.70535873313310
H        10.23561634559779    3.68272933541138   10.14375189078204
C         9.37199986707074    4.19443990183655   12.03467302002116
H        10.31287339292452    4.31144034858112   12.55321176620886
C         8.16731534843119    4.41249753518916   12.72350784879549
C         6.96813996478096    4.27580595940784   11.99203548770561
C         5.71441803234678    4.55036646713835   12.63054024332183
C         5.70039283339104    4.93516657744059   13.98826619959972
C         4.45369179986622    5.23547600129218   14.56066515664332
H         4.40087966069071    5.54665031284069   15.59417480981610
C         3.32395454275325    5.14099396969795   13.78528824711903
H         2.35023295391732    5.37214718721305   14.18797018341350
C         3.45192294947031    4.75647771839344   12.44683093346984
H         2.58257680607325    4.68317098843642   11.80873873018324
C         8.11307956267547    4.78943837796385   14.09647318750779
H         9.04422261951367    4.88954097964433   14.63464615056257
C         6.92852092205079    5.03590503707861   14.70416720376059
H         6.89017673225335    5.33634741614194   15.74104340875724
H         8.16848768817798    8.81704881070079   10.41825626849524

