26
CSD_code = DOCYAV | q = 0 | S = 0 | Stoichiometry = C10H12Cl2ORu | MND = 10
Ru        2.60806123396426    2.33449999567323    0.33384955530066
Cl        1.44393527213796    3.91564770196978    1.63002460913029
C         2.26801922159675    2.33450015409568   -2.36326598080613
C         1.72220948790640    1.32908282902433   -1.34555237426197
C         0.84680293558591    2.33450004442259   -0.83406695871720
O         1.48418907148712    2.33450022224848   -3.54514575692538
C         2.21073774472755    2.33449990259417   -4.74832985341133
C         4.69460765090418    3.04473217871645   -0.39154666978027
C         4.43736877885399    3.48543256178319    0.92502195739620
C         4.26091790317033    2.33450000969650    1.74987431854344
H         3.33183408956512    2.33450020291643   -2.62888265296791
H         1.54906861504034    0.26580998334688   -1.47186042308383
H        -0.15023339892636    2.33449999346844   -0.40348550113366
H         1.46842432758045    2.33449997613983   -5.54369303886219
H         2.83950623234103    3.22770158843904   -4.84197964671777
H         4.95762589424566    3.68024797501706   -1.22384378738801
H         4.46663490461212    4.50939058228341    1.27017493958827
H         4.18003367071129    2.33450000479538    2.83046796735315
Cl        1.44393533623690    0.75335190379940    1.63002468535827
C         1.72220943699881    3.33991734937397   -1.34555226386202
C         4.69460765774470    1.62426781619672   -0.39154665601177
C         4.43736879841828    1.18356745376416    0.92502197871732
H         2.83950582587780    1.44129792623078   -4.84197944421964
H         1.54906851379569    4.40319020158139   -1.47186021495030
H         4.95762588525514    0.98875200141506   -1.22384376161637
H         4.46663491016863    0.15960944100756    1.27017497332803

