31
CSD_code = DOCZAY | q = -1 | S = 0 | Stoichiometry = C12H9N6NiS3(1-) | MND = 6
Ni        3.07098575343037    3.36031402585056    1.62804773789783
S         2.02302395821881    1.94880782128370   -0.38652013659376
S         2.37720339512533    2.06671379847486    3.59883279153939
S         4.02386353022598    5.56036705757582    2.46843466798320
N         3.80643409597086    3.82436721660089   -0.41877884821011
N         4.33468712132320    2.11765455543859    1.94563628692160
N         1.79638259317667    4.62185372146226    1.59275652653709
N         3.21852852243919    2.91334716729642   -2.53633335973150
N         4.47923371260164    0.43346489163523    3.62077507462430
N         1.74326291595985    6.90851625734251    2.23621419646187
C         3.09129317389974    2.96257995611587   -1.20158916191023
C         3.85036025891016    1.45771890471829    3.04115301606784
C         2.39244145487432    5.75143696210675    2.08206405933046
C         4.63916251111204    4.65920727644044   -1.00437590177695
H         5.17817276361674    5.33481619864167   -0.34915136361934
C         4.81604523124914    4.67142395461437   -2.38199512272369
H         5.49772621165030    5.35419296249899   -2.86233803296311
C         4.06064515915842    3.74772209350485   -3.09790378835650
H         4.13579486187077    3.67619547205111   -4.17869201600596
C         5.48770309727411    1.73102271787646    1.43494235577820
H         5.85755912324831    2.26725445509049    0.56758710961683
C         6.19599724702532    0.67427707248070    1.99149066845516
H         7.13816606815724    0.35361275955045    1.57859413525010
C         5.62440119150291    0.05595848832324    3.09914488995407
H         6.10959479597703   -0.78033885373998    3.59030478434743
C         0.51741360304026    4.65898446439929    1.27179539180940
H         0.07670162338687    3.74563821358190    0.88727491358259
C        -0.21531787396951    5.82989084085611    1.41925587119596
H        -1.26066203325460    5.87103571876856    1.16194472673958
C         0.47039522535071    6.93565774879514    1.91126792998750
H        -0.02599929255183    7.89010608036475    2.05066059780981

