76
CSD_code = DOCZEB | q = 0 | S = 0 | Stoichiometry = C36H30CoN3O6 | MND = 6
Co        6.56840303044534    7.44999573692921    4.54033411875737
O         6.01313919521246    9.22699422358826    4.74723073497819
O         4.77530414111191    7.08298116165976    4.06807148006594
O         8.34776346298086    7.98757986693112    4.78475289204844
N         7.05893400517566    5.56481189282837    4.48643157840610
N         6.88959161878985    7.67966792704434    2.65298044709047
N         6.20853946978136    7.32093544810542    6.43129331378978
C         8.90177639293549    8.41102778526376    5.86123185807304
O         8.65166552734813    2.74758281128459    5.55620725644841
C         5.38623773674812    9.89596359454899    3.85497565622885
C         4.34549890438440    6.06552278820781    3.42160760539725
C         6.33012021347635    4.66086810174961    3.92541594755023
H         6.69008230208314    3.63011202061354    3.92182326692241
C         4.62538864342877   11.02741578065494    4.25210140252775
H         4.60392985954525   11.26267480905644    5.30549904391511
C         7.00378202499735    7.78052694462286    7.33449458705235
H         6.66079675114137    7.76594584767692    8.37370649422832
C         5.43360611462082    9.60514754224044    2.45807218484645
C         8.82003535373172    3.80365879418293    4.72888947066393
C         8.30372669506117    8.32068818036653    7.15220141444510
C         6.26832099858844    8.57222908627925    1.96079356636771
H         6.41729993632342    8.57914111540403    0.87841097748285
C         5.06757605422633    4.84038536932968    3.30134015594329
C         4.71670265274463   10.40749442064460    1.55267509981435
H         4.76374278716344   10.16303347656789    0.49985500488511
C         3.05966923798690    6.12210626844580    2.82222425655246
H         2.51424225515926    7.04937616132421    2.91498431422830
C         4.81722054053223    5.35210076897898    6.71240560386260
C         8.28933489341206    5.13387410130874    5.14881305098820
H         9.04783888961894    5.89805058977159    4.96299383536033
H         8.09646939217997    5.10663639646754    6.22739644919109
C         3.93323408539939   11.78013334740042    3.34366979140621
H         3.34970132971669   12.62476573787479    3.68234758606337
C        10.20641855255216    8.96477030378103    5.78469085759600
H        10.65736669630567    9.03136385986721    4.80589803440529
C         9.01008637746159    8.78780707848018    8.27625355621860
H         8.53822910908852    8.71721294501608    9.24713223227851
C         4.91708880577150    6.83480926448396    6.87768248296646
H         4.13651691237892    7.30197261661863    6.27370765731959
H         4.75963329385074    7.09931797795204    7.93456897689522
C         4.49014262334826    3.75815850071987    2.61373883684625
H         5.05234442173333    2.83649013041310    2.54224257327228
C         3.96573846043217   11.47037016561859    1.97912728851920
H         3.41032828187395   12.07085293227206    1.27506574227138
C         2.53618158260383    5.05249743657568    2.14938541437021
H         1.55712927872787    5.13032132152936    1.69816936749647
C        10.26580313470244    9.32210204121905    8.16337000419816
H        10.79368852236853    9.67691204727660    9.03517622547998
C         9.21759201623958    1.68104756347363    4.96703284229743
H         9.18228458815009    0.75003456974286    5.49685563221221
C         3.25146124213514    3.85453067056669    2.03782519534639
H         2.82459102509919    3.01768747582514    1.50683793404301
C        10.86208463424150    9.40794023073103    6.90027258700032
H        11.85205171681133    9.83173187813124    6.80755806462067
C         9.49010076432409    3.40792564823602    3.60649843616472
H         9.76539211019236    4.02471011754831    2.77557593094286
C         9.74770380235325    2.02432441056953    3.76308272741590
H        10.25859671132728    1.38217229267369    3.07584036224039
O         5.84089442242678    4.58956607508662    7.15859029513255
C         4.31410355144875    3.22676507852714    6.29191355539920
H         3.81036028941732    2.34011359835691    5.96650482564283
C         3.84746937006172    4.55974937976504    6.17512067465283
H         2.92311049581354    4.88212419234984    5.74301939321569
C         5.53028370222699    3.30846908207923    6.89133798893662
H         6.25055588761772    2.56529506458709    7.17019028410307
C         7.82902543883265    6.80924556427278    1.94658107757799
H         8.56950402201505    6.48197760551263    2.67847139392242
H         7.29027855380746    5.93424543112387    1.56377587579848
O         9.55638494606430    8.32079248707873    1.11401184962575
C         8.54816646315630    7.47514344299960    0.81918905499587
C         8.37868263853164    7.41047725683078   -0.53488459321604
H         7.65854977600427    6.81841552933578   -1.06272148269787
C         9.34987818492852    8.27390321333648   -1.09807565558322
H         9.51166778313446    8.47201894224629   -2.13752028066406
C        10.03175114948017    8.79891247126430   -0.04506395506466
H        10.84550416490625    9.49459400856992    0.00594029021925

