34
CSD_code = DODBEF | q = -1 | S = 0 | Stoichiometry = C15H9Cl3N3NiS3(1-) | MND = 6
Ni        4.30360054624845    3.74109077320242    8.28979816681627
Cl        0.98621509933839    8.42316422853896   10.36049605812843
Cl        2.54085921686291    1.84649354431085   13.25655527710417
Cl        4.74949258645318    5.68413676698702    3.05496720551953
S         1.96820341857905    3.15952430940260    7.32221385606826
S         5.56328521113284    1.60156541257809    7.90882343141290
S         6.02114245732894    5.36514510709737    9.06060178983720
N         2.62459697554441    5.17402893578241    8.82112690500355
N         4.05705265585444    2.65603784550772    9.71237557409241
N         4.82348119457462    4.73090985299810    6.87481560397670
C         1.60372049622104    4.59849656503631    8.14372107090887
C         0.32385596415615    5.18800050542420    8.13707913919798
H        -0.46945761688374    4.70196729766880    7.59212155964062
C         0.11957764801677    6.36199239578606    8.81384800033381
H        -0.84752511568845    6.84320330904862    8.82618732629033
C         1.19686369593713    6.93408811881833    9.49396043230184
C         2.42795022385972    6.30728348061863    9.47231609418161
H         3.28522802976411    6.72007662808957    9.98857499096242
C         4.76654139465981    1.53832101767742    9.40841566980669
C         4.80606282305646    0.45056484832207   10.29930181120592
H         5.37501377150108   -0.42241714466524   10.02203545265116
C         4.12541217416349    0.52794417989719   11.48630411223537
H         4.13143098478408   -0.28657739284638   12.19503131369559
C         3.41318309148863    1.69707335017160   11.76802352360292
C         3.39932396913691    2.73871289862969   10.86095783206833
H         2.85099788479652    3.65075762533829   11.06126686421593
C         5.77554874032896    5.54911049295336    7.38880253745160
C         6.46294585499424    6.45455395359811    6.56184055644337
H         7.21581882787430    7.08894820698568    7.00185568836317
C         6.15835422498081    6.50603519327537    5.22588211549828
H         6.66276144502689    7.18936549467372    4.55907144899808
C         5.17063081765327    5.64890844988170    4.73388819865054
C         4.52385636303021    4.77206764933575    5.58420961057977
H         3.75387494522323    4.09752609988593    5.23003078275590

