73
CSD_code = DODCUV | q = 0 | S = 0 | Stoichiometry = C27H43AuClN | MND = 2
Au       -3.12424506246286    3.51140127741387   20.81693788353162
Cl       -3.96933539651235    3.01904808547105   22.84690206354029
N        -2.90198401652342    3.28685462010332   17.95606132399373
C        -2.41715663023649    3.90127876581123   18.99085258744988
C        -1.39822471927168    4.91153202657584   18.54704764310427
C        -2.00466819331664    6.32142841716385   18.75106102340346
H        -3.01424863441938    6.33752356498978   18.33123980999046
H        -1.39691014227926    7.02639199839883   18.17602471426406
C        -2.04812404438207    6.81224504573792   20.19535065827042
H        -2.68517324283830    6.14378811532258   20.78435224467298
C        -0.63826627758955    6.77154441814042   20.77362159281033
H        -0.65436113594540    7.10549022737397   21.81222257084913
H         0.00744238842210    7.45256780158795   20.21136362123635
C        -0.08956334774490    5.35284297115388   20.70340740132908
H        -0.72613470997511    4.70616887305220   21.30700236219961
H         0.91657423675233    5.33211414274400   21.12608878811607
C        -0.02531291812754    4.84221409999122   19.26289344455666
H         0.60494831737036    5.54990148831266   18.70750318034050
C        -1.24829235665666    4.66549057346754   17.02134981558852
H        -1.38233460504456    5.59198834325546   16.46503490047278
H        -0.25692879280581    4.28457461314563   16.78318254416315
C        -2.32654877029784    3.64469563442518   16.63602247795682
C        -3.97300453634482    2.34018610042454   18.04397029632205
C        -3.68758266459970    0.97662984091199   18.19932414323556
C        -4.73720650551427    0.06940451019847   18.13183744612435
H        -4.53350092124890   -0.98445694530159   18.23497780646416
C        -6.03805319023477    0.49299392016330   17.95321204299428
H        -6.83939764767345   -0.22723552611791   17.88634746937811
C        -6.31553577350967    1.84435200820974   17.92267419107873
H        -7.34112248106212    2.17201921001763   17.86368379933218
C        -5.30031483692024    2.79034176267319   17.98256061338819
C         0.66079909576651    3.45661454451979   19.16029643470085
H         0.26405269197084    2.93818456387690   18.28063430967543
C         0.43111276899898    2.53851829254849   20.35940340284077
H         0.94160018300763    2.91095091861198   21.24264176422923
H         0.82520690726467    1.54842102804797   20.13693030303073
H        -0.62752825608450    2.44100596838667   20.58833492451712
C         2.16542146137536    3.63481903907228   18.94589163100009
H         2.60611814277363    4.17902062641781   19.77757107140886
H         2.36912881800834    4.18518564811730   18.02916624868162
H         2.65596883065445    2.66637926250695   18.87713787755657
C        -2.63447134490833    8.21991703685145   20.25262380889695
H        -2.02252272653353    8.91510954937142   19.68013052567112
H        -2.67700140027383    8.56786067977618   21.28143846103888
H        -3.64335755013461    8.23337156932997   19.84585994975917
C        -1.74440648452125    2.41644098291629   15.94076764626755
H        -2.52246677288151    1.67768470122750   15.76343823543081
H        -0.95220259919456    1.96247446484589   16.52932917565214
H        -1.32713342185437    2.71336795235076   14.98113301476609
C        -3.38724226106634    4.25110511532314   15.71948963196455
H        -4.19830873686133    3.54451730148037   15.56108139855138
H        -2.93812860134307    4.47847062360051   14.75534964216799
H        -3.79024140223957    5.17175354493408   16.13123163451576
C        -2.31470577599130    0.46554853554327   18.57092833268229
H        -1.59934243182726    1.28991385442646   18.52784711508405
C        -1.82435751874710   -0.66156619311061   17.65838923414831
H        -2.41789652836926   -1.56101572871812   17.79839768270885
H        -0.79129184336516   -0.90341183773471   17.89888108258884
H        -1.87632889728354   -0.38098171160811   16.60936671878176
C        -2.35999501038764   -0.03050805003274   20.02096456686321
H        -2.71696777764293    0.75456697740755   20.68572282360889
H        -1.36591173009815   -0.33087050466680   20.34388364560889
H        -3.02708574359811   -0.88310369571767   20.11717775916195
C        -5.68365545733936    4.24845566906856   18.09940144990668
H        -4.77943807577445    4.86173718797778   18.07265221729387
C        -6.62685597873473    4.71009522779894   16.98476485610906
H        -6.23680678812042    4.46643622297882   15.99968869548551
H        -6.76328781906160    5.78791787322218   17.04336189462708
H        -7.60368704312944    4.24534350932669   17.08704587498867
C        -6.34995041981990    4.47769493932588   19.46080741175937
H        -7.27468480451892    3.91239448336303   19.53979561241361
H        -6.57748545119856    5.53361759644786   19.58990048440090
H        -5.69049563592615    4.16564224577205   20.26933098929584

