149
CSD_code = DODGEL | q = 1 | S = 0 | Stoichiometry = C78H64CuO2P4(1+) | MND = 4
Cu        8.20295097002997   15.19858922632581   14.39940111216326
P         5.83340196411260   15.01429429443075   14.34436770327081
C         4.92998608029033   13.44479559978338   14.62518326679941
C         3.59935509664394   13.28524145937100   14.24983967174321
C         2.94022094932398   12.10714521140259   14.54696310523527
C         3.59252101543505   11.09195271249846   15.23027824329198
C         4.91076207786666   11.25616916114172   15.62110904019728
C         5.57644190868803   12.43052850856013   15.32002748464436
C         4.85917520552438   15.93334209653819   15.58697811987185
C         3.66505521137006   16.61099182575139   15.39196164295315
C         3.02964970281849   17.18699446345942   16.47706699905150
C         3.55332701485116   17.06451191443428   17.75330651426698
C         4.72998731899223   16.36387159557155   17.98348364786571
C         5.36930284338051   15.80994724448370   16.88016111844421
O         6.54732866901989   15.12010590831468   16.97899789152152
C         7.32922153201303   15.42408573406371   18.05907880708286
C         8.68759991836710   15.13541393141082   17.91749683575679
P         9.13554656564158   14.30099770110181   16.36428177415333
C         8.78334687847251   12.55683121931558   16.76458111008392
C         8.22155760473396   12.12594122448918   17.96072729024620
C         7.96260083445000   10.77946472516559   18.15193455393089
C         8.25883183531607    9.85962363403083   17.15943561972282
C         8.81701373068008   10.28471495068516   15.96353803297940
C         9.07330551935379   11.62712615937295   15.76620152243672
C        10.95611087497190   14.33765885185288   16.47833241741838
C        11.75841393243350   13.25550028828238   16.82067006866671
C        13.13502462148782   13.40335897673298   16.84128636488625
C        13.71764911548104   14.61868855315912   16.52026402932112
C        12.92104365858092   15.69995536135009   16.17649478249617
C        11.54873824280465   15.55459141602234   16.15463645769399
C         9.56216240764458   15.46733940033426   18.94215902753231
C         9.07009354748742   16.07716600432160   20.08098536068822
C         7.71389964735617   16.31991129272549   20.22425415321228
C         6.81277196473444   15.98591811655835   19.22235389672177
C         5.30434452051050   16.08245975355531   19.35869738870867
C         4.87119769349177   17.11176934767324   20.40096715776864
C         4.79706543160333   14.68907967743648   19.78954939537403
C         5.14970889128488   15.59977999401990   12.76208972263244
C         4.98834540093121   16.96538218315323   12.54383174375192
C         4.51804959636928   17.42883292447350   11.32916354829342
C         4.23578728271535   16.53630921974789   10.30867042081845
C         4.44150982636371   15.18029245607471   10.50106582548676
C         4.89999240499243   14.71273315040852   11.71786703001282
P         8.69895690421315   17.52364923463281   14.46402506433738
C        10.35668524764643   18.23401326361914   14.14087337988779
C        11.30317711093612   17.44749851538493   13.49781422951781
C        12.54056867228257   17.97242531994696   13.17065099473003
C        12.83581867171668   19.28835233120049   13.48417842186886
C        11.88938795522506   20.07972391751246   14.11785452571010
C        10.64943686953934   19.56160511805788   14.44034627363327
C         7.86685363313523   18.59311766174388   13.23956992662289
C         7.30968314664654   19.84606468378831   13.44598543432637
C         6.79736351239191   20.54426817278670   12.36742642496138
C         6.86876614690366   20.02361422503656   11.08612175964901
C         7.44729838647267   18.78444164485659   10.84541243020564
C         7.93105136757544   18.08170904907228   11.94281621565502
O         8.49064250633382   16.83701575537127   11.83388721201969
C         8.10004551653537   16.10126207971589   10.74893440429446
C         8.22771073242287   14.71758748635817   10.88210784659736
P         8.98683219793667   14.16051082979929   12.43850044014443
C        10.76454125198896   14.29461101552782   12.05408485604605
C        11.64224379699355   13.85792284146901   13.04620273154867
C        13.00776418287444   13.94401748094976   12.86025040773065
C        13.50947194753285   14.47711439902167   11.68272745490364
C        12.64232435655737   14.91901218072199   10.69701955750979
C        11.27242382491560   14.83104413580006   10.87671491412396
C         8.72853309459254   12.35831790264941   12.30951270167395
C         9.69488774621905   11.43891848912762   11.91806836277566
C         9.38325336890455   10.09020224655000   11.88502757207470
C         8.11850387435774    9.65061939163685   12.24127682404358
C         7.15221852533164   10.56405275334421   12.63323235250000
C         7.46106128285184   11.90888200474976   12.66779011300882
C         7.80187505132641   13.89404638293563    9.84975859090425
C         7.25851710727357   14.46050964710252    8.71194533074698
C         7.17163945998167   15.83659434572692    8.57889421566323
C         7.60282740711160   16.68630399003592    9.58848344708054
C         7.67480738073051   18.19716934555528    9.46597011186621
C         6.70870906674470   18.75325414388427    8.42183383964961
C         9.11924322612433   18.55166149987543    9.05063656659933
C         8.23592489758488   18.28248634488718   16.05280874311064
C         9.17223833617159   18.48022081845155   17.06409950460462
C         8.77855417514232   18.98714771243409   18.28807797887883
C         7.44886643172265   19.29771077024153   18.51901100954091
C         6.50645839057375   19.07695142261422   17.52843246142407
C         6.89473429305350   18.55612560736004   16.30838626360359
H         3.08410419417790   14.07646762964706   13.72383926407524
H         1.91006406425673   11.98129290896203   14.24885720324520
H         3.06975760852184   10.17573619325361   15.45988174679854
H         5.42515469876545   10.47310566331782   16.15837315268390
H         6.60691911533710   12.56703648914059   15.61375867325932
H         3.23904438321207   16.69783105260267   14.40384728233531
H         2.10553638963157   17.72487375930685   16.33034532653503
H         3.02132085810587   17.51244110821183   18.57630817059047
H         7.99097988185860   12.83658131437452   18.74140040086782
H         7.52914127038095   10.44733944852757   19.08360234196888
H         8.05507289183168    8.81132227972887   17.31737029300944
H         9.04773349320236    9.57368316844865   15.18450908309136
H         9.49706238651669   11.96924373673263   14.83021450804308
H        11.31465376599295   12.30308575639980   17.07244111679660
H        13.75619333942231   12.56226097781288   17.11146818792984
H        14.79200869673934   14.72300033927780   16.53749633412926
H        13.36751789408632   16.64939008823802   15.91985518459745
H        10.90854041392608   16.38361350408059   15.88163163962992
H        10.61546446062473   15.25105791078862   18.84629395204119
H         9.74561766147104   16.34472713337662   20.87878872245249
H         7.36157423638514   16.76636322721008   21.13917324271736
H         3.78912325783924   17.12347362338498   20.49421766640070
H         5.27002097414398   16.85158457486041   21.37716342802275
H         5.21582245247750   18.10626372637025   20.12996976070003
H         3.71339707045806   14.69929696893494   19.88155126627363
H         5.22857245777761   14.41536493806899   20.74992671293387
H         5.07137484758354   13.93178990567101   19.05687738653026
H         5.22083042988231   17.66774866578842   13.33286977641189
H         4.36931194350292   18.48869028827151   11.18466945416815
H         3.85364439857067   16.89333991328181    9.36428183668219
H         4.23630590610579   14.48334842214392    9.70275666800337
H         5.04377490746208   13.65116149641996   11.86185925452471
H        11.06453483681010   16.42031839891548   13.26424488575682
H        13.26991094807928   17.35044441937157   12.67307862120396
H        13.80116870075406   19.70134921394122   13.23322380075325
H        12.11814196852493   21.10766283905237   14.35657742169481
H         9.91130313117830   20.18367507986289   14.92683501164450
H         7.26612973836464   20.27020954265766   14.43786203396560
H         6.35267809658466   21.51524577005148   12.52339852308565
H         6.47792507341194   20.60541277790186   10.26776742367264
H        11.24234315480057   13.45417302521706   13.96798459829551
H        13.67786511307948   13.60026158399170   13.63383056167334
H        14.57639804668993   14.54693433335038   11.53362656243154
H        13.03389818316444   15.33234440145046    9.77937950352614
H        10.60280033006950   15.17461788187167   10.10139712909422
H        10.68452093820503   11.77052289375829   11.63886820587459
H        10.13491481686952    9.37807786690085   11.57810237388113
H         7.88657690180763    8.59660895954326   12.21446136229562
H         6.16518619832452   10.22990688283234   12.91719586138178
H         6.72394174659665   12.63695012456104   12.98068286303898
H         7.89360293709816   12.82212452883024    9.93970109517919
H         6.91924246684675   13.82566737708698    7.90794889851976
H         6.77055069679896   16.24429775505545    7.66597741374791
H         6.82462073813963   19.82985149436061    8.33586709187940
H         5.67953017973058   18.52605094632887    8.68698532024189
H         6.92514838230833   18.33246534133388    7.44415789876072
H         9.23113378727252   19.63095055536053    8.97610757726769
H         9.83611027707316   18.18308342182077    9.78262846445591
H         9.34946356453718   18.10714054206867    8.08481018460325
H        10.21552602125941   18.25774107988738   16.88972092840996
H         9.51374647832216   19.14766513303614   19.06200506847410
H         7.15112070601616   19.71370975746379   19.46962199905082
H         5.46650521785723   19.31212699770087   17.70084985128889
H         6.15391970998374   18.36992923065804   15.54231163239845

