86
CSD_code = DODJAI | q = 0 | S = 0 | Stoichiometry = C43H35Cl2N2OP2Re | MND = 6
Re        0.74436550698241    0.96633273470891    3.46486934192948
Cl       -1.20714675030207   -0.10487471295953    3.43533933916963
Cl        1.40087221036762    0.94849109725645    1.22371744779369
P         1.77186438026886   -1.17073090958070    3.92727750936967
C         1.85116266243533   -1.38378150779972    5.72489601602507
C         3.03424655114969   -1.18400374910018    6.42716968430211
H         3.95858093677193   -1.02528727232924    5.88908022973651
C         3.02062223039720   -1.17532038913010    7.81093749617124
H         3.93945732589407   -1.01249764199136    8.35511997307537
C         1.83220333894093   -1.35833237702600    8.49698568241108
H         1.82548146514638   -1.34123728749968    9.57704992614930
C         0.64877743832077   -1.54545479588277    7.79923172425347
H        -0.28052857537017   -1.67446501566027    8.33507252635292
C         0.65272773107212   -1.54597237525320    6.41836862147196
H        -0.27131738642516   -1.64731444026070    5.86482764584672
C         3.47954413376283   -1.46382583864103    3.37216136904845
C         4.02405939255197   -2.74287663495379    3.44603815539626
H         3.42753390914798   -3.56000209710969    3.82837350940602
C         5.32263142643175   -2.96353160899220    3.02826582920642
H         5.74420190077687   -3.95664891187585    3.08469061307367
C         6.08178058723788   -1.91378784673791    2.53408167308049
H         7.09479130830606   -2.09185700274877    2.20418192023112
C         5.54173681666734   -0.64096422885699    2.45943223467868
H         6.13181554972614    0.17567754162054    2.07114475651483
C         4.24192955078994   -0.41290065192203    2.87673162874802
H         3.80722784318310    0.57600072590842    2.81579016930450
C         0.91228633779383   -2.62939420628950    3.27879345321615
C         0.66157005809816   -3.76952126321616    4.03268262382725
H         0.96180893693585   -3.81196592956808    5.07104551357923
C         0.01895120050672   -4.84758272596722    3.44943167495122
H        -0.17994255921948   -5.73305761992741    4.03607699944468
C        -0.37189889901035   -4.79307727834358    2.12183773575826
H        -0.87928419416595   -5.63575469002046    1.67530091008377
C        -0.11671744592888   -3.65864442857896    1.36758517911497
H        -0.42329685605771   -3.61519644639049    0.33289647397709
C         0.52510455680655   -2.57855999084791    1.94223695861602
H         0.72346963924216   -1.68432171559112    1.36412320167310
P        -0.50230902354725    3.01877134782255    3.18647361456815
C        -0.84163348242059    3.69732928175165    4.83219028703816
C        -0.09901807185842    4.75338158509861    5.34784701764139
H         0.60741742104339    5.27291512297710    4.71534064417811
C        -0.25767798888366    5.12538128929491    6.67133494794281
H         0.32611400902362    5.94085698728842    7.07258668596005
C        -1.14880083795215    4.44565789148281    7.48388563684091
H        -1.26177902254833    4.73365561892759    8.51882176071143
C        -1.88263530539540    3.38484266750956    6.97545189871945
H        -2.56813578146020    2.84642067474825    7.61372129038009
C        -1.72239044566184    3.00105273432657    5.65870350281391
H        -2.25678860463431    2.14670882449991    5.26492821065542
C        -2.10535694382773    2.87908102658162    2.35160301559115
C        -3.27246237120972    3.46173321108071    2.83096449786552
H        -3.26094712617109    4.01855525867600    3.75824198641420
C        -4.45029150112147    3.32082003196071    2.11809097830222
H        -5.35892992580835    3.77038256535229    2.49232721678536
C        -4.46784804480305    2.60465856211465    0.93271379003290
H        -5.39243151599774    2.49274935601662    0.38539328280248
C        -3.30286712534845    2.02930324752207    0.45023083565199
H        -3.31694174496833    1.46966037184977   -0.47337790401253
C        -2.12281768925804    2.16600941817900    1.15567519744301
H        -1.20795506065713    1.71486628114056    0.79137721105522
C         0.27652394018075    4.39920884452853    2.29300886287829
C         1.64188914434862    4.37458769046500    2.03331511816191
H         2.22796826988875    3.52297269368767    2.35275537344895
C         2.23602750871585    5.42996887116928    1.36392374491430
H         3.29606917000716    5.40745230490396    1.15977440828662
C         1.47205679161615    6.50885954485023    0.95163944001851
H         1.93556944716755    7.33017491736445    0.42503274143039
C         0.11018969165816    6.53520432778987    1.20947041282167
H        -0.48572870930775    7.37619565469342    0.88578665292093
C        -0.48958969731723    5.48444725357617    1.87758460170126
H        -1.55252463452476    5.50063243660912    2.07620025073184
O         0.55151368102131    1.29355475571173    5.95653203589682
C         1.57870844588210    1.91836075277499    6.27292195633781
N         2.49919035474735    2.25249458098176    5.30454506472196
C         1.87451906438152    2.33355298229870    7.64195291178540
C         0.97601212235311    1.99963978653351    8.65427630880670
H         0.09065012146925    1.44022730544813    8.39494753861507
C         1.22973262427348    2.38446614028218    9.95559584874584
H         0.53425481966955    2.12616244853536   10.74075511843595
C         2.37678630975718    3.10315080669669   10.25515290289333
H         2.57373867494677    3.40417348348243   11.27380478612968
C         3.27211682407551    3.43653816157089    9.24989999572504
H         4.16415362196297    3.99666194630395    9.48903446711550
C         3.02640924647844    3.05490610156786    7.94512473579144
H         3.70810671245633    3.30327140920803    7.14758897822902
N         2.12807037844953    1.85008293428267    4.18900439105113

