53
CSD_code = DODNOC | q = 0 | S = 0 | Stoichiometry = C20H16N16Zr | MND = 8
C         6.64256251831743    6.60584984965941    9.62297748101007
H         6.67551039549675    5.61548335755269   10.06329455421468
C         6.16058537015041    6.79709002838302    8.33871181388901
H         5.81051424317520    5.95780549912319    7.75923531114741
C         6.12708716703188    8.08610713743049    7.82896776982600
H         5.73220743737558    8.28327651537031    6.84376867540952
C         6.61206974114087    9.11667158405952    8.61034770114400
H         6.58008714240743   10.13261000351725    8.25347652324847
C         7.10213779494210    8.83276406707904    9.88646832997407
C         7.65548220245354    9.90326019973303   10.73889954368041
C         8.22862100335780   11.04317996734686   10.17214049080216
H         8.32269524876095   11.13036230789241    9.10250532064417
C         8.71362265918301   12.03731730221396   10.99935113040718
H         9.17093820601170   12.92255885294576   10.58387140794833
C         8.59863013227531   11.87117880714205   12.37104326461890
H         8.94679417605574   12.62713423436534   13.05664978261624
C         8.03617477704939   10.69994244538058   12.85071657427686
H         7.93709893568797   10.52582697082119   13.91649389897936
C         9.61416093362278    5.12160473984378   14.04450808000286
H        10.16812282312442    5.68317848022726   13.29994886112429
C        10.11493210064619    3.93968081240676   14.56428226280229
H        11.06772397868309    3.55983707633699   14.23157851498730
C         9.36018873631747    3.25807616854267   15.50736433687508
H         9.70308669986272    2.32126536309017   15.92000107889610
C         8.15624233464611    3.80339393711586   15.90896010306072
H         7.53399187004556    3.28755671307062   16.62135254532455
C         7.73494594333348    5.01092289913789   15.34933629962119
C         6.46590407207598    5.63981832158457   15.76378037524199
C         5.94202448206311    5.43017178061904   17.04064995456192
H         6.48390606913067    4.83983480901761   17.76081196721749
C         4.74170619634705    6.02231681627023   17.38237258914537
H         4.32062995005376    5.88110428066733   18.36634553848840
C         4.09303656297039    6.80047454022804   16.43515307469046
H         3.14712585446616    7.27063185531376   16.65190673096161
C         4.69185489703051    6.97364873712765   15.19852880165012
H         4.22256837729700    7.57967277889135   14.43103202746424
N         7.55107879155442    8.48351261555220   14.70106941125946
N         7.96874640283267    8.10293132935241   15.72808189869428
N         8.32981898012679    7.76570031829026   16.75218447117475
N         9.26883951929024    7.52289167551007   12.34094697515353
N         9.72606364067554    7.97733767718016   11.36227137986758
N        10.20254040311681    8.43061710947677   10.43452469201825
N         6.88320055110568    5.36433951599339   12.26275998763875
N         6.37477219421886    4.49382365421359   12.86075492260182
N         5.92521303013460    3.61205262689888   13.42043212014550
N         5.28060067028080    7.97595102160628   12.47273647938638
N         4.91246031084013    8.83592537985484   11.76726277011109
N         4.52260811563570    9.64747231538875   11.07267219141860
N         7.08855270261676    7.59246572491569   10.39652599433371
N         7.58685563442073    9.72364018338266   12.06620389221256
N         8.44854404741174    5.64904465377300   14.40959256320551
N         5.85530886083367    6.42303188051244   14.86202996451585
Zr        7.24622511294872    7.34175307911120   12.93951757204620

