127
CSD_code = DODSIZ | q = 0 | S = 0 | Stoichiometry = C50H70N4O2Zn | MND = 4
Zn        1.44727833401159    0.35492136492168    4.94246022143345
O         1.92777865621229    1.65602608241393    3.76503002540346
O         0.52309310192296    0.79525855058459    6.44924686145023
N         0.04273998316076   -0.71148477913381    3.64114746188497
N        -1.41277377629500   -2.53771145630245    5.30108514641379
N         3.35942489815230   -0.09701184534619    5.90716867308974
N         5.26097620475292   -0.80574159011800    3.87645906295421
C         1.00686651920855    2.20479872380479    2.98111214814110
C         0.92991266744080    3.60417896864411    2.77945548223742
C        -0.11635628022549    4.09180066898184    2.01806583986239
H        -0.20187035737485    5.15680415971189    1.88717832058714
C        -1.07233786082710    3.28636539213342    1.40227612278227
C        -0.91802793459058    1.91772062377873    1.52398978623831
H        -1.58618007307299    1.23509469758371    1.02153694962537
C         0.10723289359987    1.37991626898420    2.28610032263401
C         0.31082492729957   -0.11115373163356    2.32001328090534
H         1.35358153967110   -0.33295686279172    2.06604106148321
H        -0.33343765490300   -0.58799993907149    1.56644151164502
C         2.01051262140854    4.52745661474308    3.33385760063977
C         1.80652683006220    5.99565444303834    2.94416343990566
H         1.81106753326351    6.12258675367029    1.86376412171037
H         2.62239830976523    6.58776028483504    3.35514092288937
H         0.87555514798933    6.38781828483353    3.34782645994763
C         3.35709153227537    4.07256732106011    2.75295402887010
H         3.33403236889201    4.12175601607777    1.66572617325969
H         3.55862004754397    3.05039541512801    3.05286932407847
H         4.16210746377314    4.71006948104385    3.11421806867056
C         2.06246444467088    4.45425339559962    4.86406228483250
H         2.12290544301854    3.42546485053986    5.20246379503916
H         1.17340726180767    4.90263153670184    5.29968009896190
H         2.93256940870357    4.99198605484833    5.23684457381917
C        -2.20071313969307    3.93282755400959    0.61299752149881
C        -3.00301662577281    4.85104537416898    1.54551380904328
H        -2.37944808761222    5.64187848308235    1.95225557051448
H        -3.40885950998290    4.27791515171280    2.37647927874204
H        -3.82815653854447    5.31088177723710    1.00490783152727
C        -3.16489733125776    2.90284378078508    0.01752329728148
H        -2.65407530927155    2.25182572849393   -0.68824682131077
H        -3.96201398745451    3.41653823852148   -0.51670583226208
H        -3.61855143612419    2.29682816699940    0.79849658207308
C        -1.60931527306989    4.75407522532989   -0.54120940358692
H        -1.01737618930863    4.11350832963096   -1.19172469738252
H        -0.96716913817720    5.54834850470816   -0.17145932768797
H        -2.40545866061821    5.20533673999317   -1.13033506954796
C        -1.36588982041755   -0.49929715751808    3.99001172837790
H        -1.99955042993944   -0.95208704110052    3.21292071244321
H        -1.56089562818570    0.57325311179607    4.02160839009867
C        -1.70271944290978   -1.11967044178662    5.34086248715602
H        -1.12293040381633   -0.60562119054126    6.11802905464956
H        -2.76771963618223   -0.97635268002564    5.52687231399980
C         0.25595263653760   -2.15721921911561    3.58934699957088
H         1.28670784490308   -2.36754573416997    3.29306012817886
H        -0.41968580406432   -2.61053518179442    2.84883054305593
C        -0.02878674992555   -2.75922547325237    4.95983720154894
H         0.19573195278387   -3.82552151123695    4.95509106005960
H         0.63391913350272   -2.26455339960124    5.69691930084095
C        -2.02667450763961   -3.39309850662971    6.21625214708845
C        -2.75450161268380   -2.92380357021012    7.31080814954684
H        -2.80135679914301   -1.86747078952351    7.52249257977292
C        -3.40754896399259   -3.80535544144793    8.15266022192546
H        -3.96177062940262   -3.41787038089447    8.99527135189926
C        -3.34727846129510   -5.16968461187430    7.93332971844971
H        -3.85681844006522   -5.85384375641238    8.59449152354968
C        -2.62517462938117   -5.64682696691496    6.85171994157074
H        -2.57446019182711   -6.70934049686232    6.66197595642595
C        -1.97760591655425   -4.77376677797528    6.00177213367500
H        -1.44374937006922   -5.16561026793956    5.14832929643226
C         1.13201202947216    1.72341017915835    7.18779245369951
C         0.48675581096730    2.90603574230212    7.60911741379530
C         1.23512598902018    3.84729032155207    8.29992552646399
H         0.75149443324352    4.76047542683014    8.59368482611219
C         2.57451832533953    3.67639885337663    8.62737481860146
C         3.16099487944742    2.46500636526520    8.29149857630165
H         4.18271163007008    2.25171503136908    8.57407630511593
C         2.45725793246704    1.49816466414258    7.59912055335493
C         3.06423640919638    0.14826676246770    7.33257904475785
H         3.98647401348217    0.03106398698095    7.92067372501441
H         2.35210844949424   -0.62001649115936    7.65287654818942
C        -1.00164370302107    3.10933318074238    7.34502278236579
C        -1.75545921404039    1.95344889875433    8.01883553211468
H        -2.82372454793295    2.02779726404251    7.82311966999102
H        -1.59523867772147    1.97925391155844    9.09517397944119
H        -1.39295156582272    1.00440942245333    7.63952719573758
C        -1.28760696382275    3.10979615272834    5.83785044904883
H        -2.36114541534276    3.08449678048108    5.65764590332252
H        -0.83388323810717    2.24644840588907    5.36262453141123
H        -0.88235243463700    4.00241479649799    5.36871392177564
C        -1.54711236054389    4.41979174775463    7.92232455333163
H        -2.61318194546270    4.48286452954067    7.71092173384372
H        -1.06610187643764    5.28376247778417    7.46935236854592
H        -1.41603840969089    4.46185523713432    9.00129356523284
C         3.39810813648267    4.73709638782360    9.34308521204078
C         4.59833956013540    5.11054702691127    8.46132204274574
H         5.23275547000105    4.24905498393322    8.27193735578398
H         5.19963840223231    5.87784340998706    8.94534459355873
H         4.25166137744602    5.49452035060272    7.50439319041737
C         3.89440055001791    4.17782183780969   10.68384785485816
H         4.52747671663423    3.30686443024172   10.53870469205149
H         3.04917722958610    3.88417486086523   11.30263886388566
H         4.46952369735087    4.93180849143493   11.21798957746986
C         2.60410835691342    6.01505494184844    9.62592129373205
H         3.24877422412151    6.74207430902374   10.11672750210023
H         1.76241481933821    5.81499847434467   10.28464039604319
H         2.23808742454438    6.45806692374753    8.70288348625148
C         4.42027842047902    0.81783159576148    5.47240900099876
H         5.29970782836047    0.68194661753731    6.11903097541354
H         4.05754993623486    1.84121818483548    5.57225692742929
C         4.82229971466622    0.56545786812431    4.02365783062888
H         3.96439242077977    0.79214170675524    3.37537576747152
H         5.64783147287324    1.23478909480935    3.77858477144677
C         3.86132998739733   -1.46104756576469    5.74227722622672
H         3.09814311374417   -2.17190174784333    6.06995282062237
H         4.76281441406818   -1.60521848931283    6.35612635007100
C         4.21299870029326   -1.71020211309322    4.28145000485510
H         4.52800414726718   -2.74439681933675    4.14461750843094
H         3.30360019009350   -1.53915897320125    3.67270121090258
C         6.06967602334524   -1.15937983528348    2.79491119601158
C         6.71632814410056   -2.39878789297117    2.80251322394381
H         6.56643016556490   -3.07680317349550    3.62991432086299
C         7.56708382094274   -2.76068278170209    1.77822546963127
H         8.05695101383666   -3.72319886405231    1.80904630513464
C         7.80509715511128   -1.89525603979204    0.72298955150260
H         8.47367772796363   -2.17849504875763   -0.07546814730248
C         7.17669784992110   -0.66328039610436    0.70835260961032
H         7.34847975110613    0.02100960346495   -0.10986294355219
C         6.31578976384487   -0.29598709315035    1.72653980353997
H         5.82459561881458    0.66276076739112    1.67487132697867

