64
CSD_code = DODTIA | q = 0 | S = 0 | Stoichiometry = C36H23FeO3P | MND = 6
C         6.63154083141318    3.64561544250074    3.43358561313348
H         6.70238101240288    4.68989252071452    3.69736264461546
C         7.70689731046822    2.79928835264343    3.65608193837312
H         8.60720453464569    3.19164930717896    4.10739750571016
C         7.64632950664299    1.45907607136054    3.30260099800676
H         8.49840486502186    0.82050710461502    3.48623240461522
C         6.50839775962629    0.93470464580165    2.71050689972519
H         6.46624868689814   -0.10731286241129    2.42896454170829
C         5.42915388672622    1.77048028294555    2.48490892902233
C         4.13370485266590    1.51593165122593    1.88341418707861
C         3.59039455336302    0.36293233197791    1.34537953759371
H         4.15198908792533   -0.55991383315615    1.33461403116219
C         2.31065547749995    0.41557449868247    0.81612613138002
H         1.87072742665125   -0.47403407497546    0.38885191114640
C         1.58779842515002    1.60044713871898    0.82391302216494
H         0.59302576019139    1.61944962850972    0.40277753536533
C         2.12492487943525    2.76146898728147    1.35757967059114
H         1.55794538849511    3.68153190199581    1.35056443039531
C         3.39952157911452    2.72110916468635    1.89371639570584
C         4.21065190928310    3.76869369374762    2.50879500669122
C         5.48681563061446    3.13173652262672    2.85292186217821
C         3.85030843551843    5.02403849800240    2.79920208050516
C         4.48689520893583    6.18646119680251    3.26836213155041
Fe        2.34181225593009    6.39059165629012    2.76260617089563
C         2.28727495606325    6.20565605121084    1.01665066278822
O         2.28134491221987    6.08713426635564   -0.12394700437521
C         1.64528498034993    8.00788585497491    2.59418086917717
O         1.13662790432848    9.02675545513995    2.44666950471280
C         0.97859495297165    5.33812730935612    3.27645634221794
O         0.07890916528688    4.71577933191482    3.61410176703852
C         5.68421332749841    6.82740864858088    2.72686747111754
C         6.58141710561503    7.48356486208362    3.56868657582073
H         6.37803633744994    7.53600525428755    4.63074208422218
C         7.73760977099212    8.04321997668753    3.05912803659273
H         8.42278762740770    8.54992761197300    3.72308298722726
C         8.01948472268215    7.94916218929996    1.70678238700956
H         8.92241952570444    8.38849009846990    1.31019485810297
C         7.14131029123080    7.28359641181868    0.86522492856509
H         7.36089531648668    7.20144326589113   -0.18888266595922
C         5.98229655742674    6.72725517254633    1.36731887967319
H         5.28968624547725    6.21565101698880    0.71368521126727
P         3.43134275989661    6.73759719747495    4.61213545944433
C         3.59575193382319    5.55652365037910    5.98902349970805
C         2.45343953187540    5.19798308994036    6.69752111986391
H         1.50200407082033    5.63805236500125    6.42498698783428
C         2.54371151232278    4.28602403938845    7.73291373303372
H         1.65917272964493    4.00850939884542    8.28694385775507
C         3.76920016586192    3.72207021164907    8.05143537736995
H         3.83728075710897    3.00302984558246    8.85427055235462
C         4.90612185621947    4.07117367002110    7.33960675081585
H         5.85769121490050    3.62277754725827    7.58415986643707
C         4.82507847596370    4.99083397828963    6.31058549351164
H         5.70721456224637    5.26730098318858    5.75050851038097
C         3.99871856119007    8.32793154956559    5.27524805263830
C         4.16796031027297    9.38713582838179    4.38551019612383
H         3.97244230300638    9.23459653054071    3.33133353905389
C         4.59289886383108   10.61541786079453    4.85111773732355
H         4.73222047574292   11.43360730515148    4.16043687067086
C         4.83527389466888   10.79838266313534    6.20457116455680
H         5.16341715259972   11.76085389173809    6.56756933451715
C         4.65163290245560    9.75106135197451    7.09222604139819
H         4.83487097982020    9.89676420600267    8.14661699242754
C         4.23188976213031    8.51465643124993    6.63402101224100
H         4.08804225978871    7.69493379910179    7.32474937601983

