100
CSD_code = DODTOH | q = 1 | S = 0 | Stoichiometry = C38H57AuN3O(1+) | MND = 2
Au        6.83140795364465   -0.49891696414935   11.37580696504816
O         6.26017516292104   -1.91775769402318   13.51186849248010
N         8.49163853532463    1.71619481090614   10.29870500623846
N         9.71944060101616    0.21347875603823   11.24566059528413
N         4.92261258303753   -1.56608877146301   11.66557618388127
H         4.99373300890042   -2.45318745040295   11.17063303782713
C         8.48104709793216    0.56426343162301   10.94680883329560
C         9.84097298683949    2.24499818680081   10.09916401926414
H         9.93122783319326    3.23348677030216   10.55694038013782
H        10.04995560240238    2.34361593660192    9.03044518950716
C        10.71192980600785    1.18412686635000   10.78322654651624
H        11.41505511615198    0.70267348038200   10.09852078706691
H        11.27598283529422    1.57780294019233   11.63274330042083
C         7.33059946847577    2.39621058171539    9.84062492004267
C         6.70262669799654    3.30926653031859   10.69132552932891
C         5.56422472077643    3.95621403114622   10.22933906242793
H         5.05629047621780    4.66407067405703   10.86483415202482
C         5.07261135601666    3.70532245213639    8.96243524010870
H         4.19025357701592    4.22165693846536    8.61673139656329
C         5.70267060888242    2.79249952542600    8.13855490184071
H         5.30317560290938    2.60116377895869    7.15534794553238
C         6.84122700011246    2.11991875963712    8.56223478284698
C         7.21239596588800    3.56528992308771   12.09065725752951
H         8.17480014728769    3.06138843328522   12.22068347588894
C         7.42522490985755    5.05805575766335   12.34774535698350
H         8.05602692588267    5.49419809075153   11.57619319516055
H         7.90732958969650    5.20357334269576   13.31149876466464
H         6.48079798067778    5.59398833088149   12.35969294755834
C         6.24160448714808    2.96652740421015   13.11186096248074
H         5.25261726748096    3.40561932428729   13.00862489846546
H         6.59796176977490    3.15238065222417   14.12191106460007
H         6.16426954362405    1.88875193858434   12.96572199205681
C         7.50140910412137    1.09789211149108    7.66691658368912
H         8.40521388713409    0.72233592562855    8.15633638001511
C         7.90829834472507    1.71500078542662    6.32765493074127
H         7.03626076169054    2.01757796378467    5.75535456122217
H         8.46627248939704    0.99169520411693    5.73784852427928
H         8.53414067578250    2.59125063293149    6.48305209004726
C         6.56557423373009   -0.09539938040193    7.45852621110515
H         6.31436372492092   -0.54519412849855    8.41930695623065
H         7.04959428786279   -0.84589852660309    6.83851895518701
H         5.64609795688392    0.21382695711956    6.96931319254596
C        10.09102138399627   -0.95057646179325   11.97075571717721
C        10.19307492924870   -0.87879302219135   13.36214015158335
C        10.59579737929090   -2.01867717335342   14.04643521624637
H        10.69362454384643   -1.98998073761556   15.12005771648674
C        10.87372742048308   -3.19102449943732   13.36911287756930
H        11.19112250938147   -4.06558252856411   13.91598312226093
C        10.73811028258679   -3.25035549675736   11.99501695489432
H        10.94397637233700   -4.17578042005943   11.48121634877973
C        10.34751279370467   -2.13185048880856   11.27091114393318
C         9.85922584366721    0.38459909592556   14.11878269769287
H         9.53971844324753    1.15349100147691   13.40854724210744
C        11.08467114531531    0.90731610874002   14.87220340208088
H        11.39526281922615    0.20583133713029   15.64129191563597
H        10.85247776595156    1.85560499430578   15.35085234887985
H        11.92207351585715    1.05782444288453   14.19352034322407
C         8.69228018965415    0.13790449628147   15.07846936701552
H         7.83157522393468   -0.25450586597190   14.54077753813039
H         8.40728611154808    1.06981714191301   15.56063190930871
H         8.96920641552916   -0.57271761594367   15.85218395976828
C        10.17334836804045   -2.21422391685720    9.77250777782178
H         9.94515672784908   -1.21743357627303    9.38258366208889
C        11.44672481769791   -2.71104337928176    9.08631015380271
H        11.66288146741180   -3.74021261638753    9.35750519857863
H        12.29938029230931   -2.09766974150735    9.36978270975085
H        11.33040845101557   -2.66323895937722    8.00623270923497
C         8.98336183464899   -3.11852452461536    9.44088718650019
H         9.14990777942206   -4.12755372185213    9.80856162237198
H         8.83505681868106   -3.16338114785294    8.36482739683734
H         8.07641291104250   -2.72421368096643    9.90104632545177
C         4.88456269297242   -1.90425244183541   13.11105663257769
C         4.19093731914702   -3.24462718427456   13.34007979594178
H         4.55413339641032   -3.98114490900352   12.61744765015481
H         4.45002450706240   -3.60099356678056   14.33889948396836
C         4.25315376203712   -0.78956292605972   13.95882813895395
H         4.60357975337506    0.17417881147765   13.58679477468276
H         4.66939409061277   -0.91540362121245   14.96029935898260
C         3.79343951664959   -0.82746708335388   11.07847828142182
H         3.84308075020086   -1.00682960690252   10.00133250865913
H         3.96041315707890    0.24111085410390   11.23176384079735
C         2.38660197849200   -1.16741793143788   11.59183786512009
H         1.70639184858677   -0.89158882958942   10.77814060480669
C         2.15948385288611   -2.65501095785157   11.89336854011083
H         1.08280840534791   -2.83386522565709   11.86935178629701
H         2.60090182571001   -3.26490491622914   11.10031527162817
C         2.66999529079980   -3.13103080439743   13.25923009390708
H         2.26115675061266   -4.13226627509935   13.43149724229395
C         2.20613995843233   -2.19675678834184   14.37189956586697
H         1.11732908490141   -2.18293324272792   14.42660449550925
H         2.58528962999338   -2.54730743946747   15.33310383297140
C         2.72375068710200   -0.79512301976655   14.06654715669433
H         2.45782302823206   -0.12128499220924   14.88682434124874
C         2.03031425341557   -0.30240821199346   12.80064511679971
H         2.29561434556178    0.73728753624130   12.59811407717207
H         0.95162599338577   -0.33802483509885   12.96204603757717
C         7.00265071486073   -3.12074428858501   13.42516793589532
H         6.67312262333568   -3.85246062338699   14.16499100935953
H         8.03150688519191   -2.83777448723323   13.64050766392996
H         6.96417665604262   -3.56511635020744   12.42704661330053

