71
CSD_code = DODVEY | q = 1 | S = 0 | Stoichiometry = C37H31AuPS(1+) | MND = 2
C         9.01218114560760   -3.09666912969885   12.99091789085303
H         8.40662037921784   -3.45695107657907   13.80994078162478
C         9.61578159887831   -3.98347980029693   12.10969741530733
H         9.47741531593438   -5.04554066473104   12.24449943765514
C        10.39596538025784   -3.52245516908375   11.05980119999296
H        10.85535444687285   -4.23279889960993   10.38927445029220
C        10.59677396747101   -2.16365379146770   10.85889007466880
H        11.20505741452138   -1.81427745906281   10.03878336142188
C        10.00304718472180   -1.27107850621311   11.73171149768203
C        10.01570631963498    0.18398959857290   11.78190078758438
C        10.61969599059788    1.12639821225088   10.97038310943361
H        11.21951378124252    0.82584850980768   10.12512725192734
C        10.44032198884546    2.47052721188890   11.26604755739155
H        10.90773109643243    3.21867258506844   10.64380443619225
C         9.67303892597701    2.86965288200081   12.35027925781301
H         9.55297071578369    3.92184818162773   12.55994679345825
C         9.06002142686371    1.93303412943780   13.17100770768715
H         8.46251938756682    2.24138156259086   14.01730070092512
C         9.23717400541661    0.59600241644227   12.87950315915507
C         8.67576339031952   -0.59458838008569   13.53155514392463
C         9.21233537620277   -1.74494650352589   12.79641920794266
C         7.81406844414466   -0.59681523397939   14.51226119333951
C         6.77554840586912   -0.55995915994453   15.31115141418123
C         6.78753558423628   -0.49899545824221   16.77361435839807
C         5.63843361477633   -0.79454507536290   17.50192799320119
H         4.74732313854235   -1.13341675550134   16.98311280450087
C         5.64394147849647   -0.70766143666596   18.88225420928203
H         4.75324698851574   -0.95359561732492   19.44156342914109
C         6.79481226111827   -0.31943694602064   19.54805675199718
H         6.79732383815816   -0.24975639704374   20.62470219878094
C         7.94528612379476   -0.03233999594974   18.82952174743574
H         8.84525976376054    0.26209703297494   19.34674351070296
C         7.94572857423792   -0.12080662115069   17.45083289459617
H         8.83763047192411    0.10391774922868   16.88460859690149
P         5.16184941866361   -0.40058431911014   14.47363703689266
C         4.39597789090751   -2.03930089380184   14.46343470326721
C         5.06316359878150   -3.17771192041326   14.90232500885100
H         6.07271227908503   -3.09915649747790   15.28222109048180
C         4.42173966486848   -4.40290795785429   14.85333253663465
H         4.93490425457196   -5.28990838690379   15.19231496843856
C         3.12510455225302   -4.49173445733598   14.37268750986571
H         2.63009446454030   -5.44979002171323   14.33700636467587
C         2.45839211728560   -3.35490674698987   13.93964029311358
H         1.44804799666594   -3.42821029155202   13.56738635625054
C         3.08976674883947   -2.12692128293489   13.98762874370090
H         2.58571779099711   -1.22753367403301   13.65452938301565
C         5.65880746596216   -0.11091196477175   12.76079478794026
C         6.03870066144308   -1.16831077483896   11.93919461125046
H         5.92663731219383   -2.18766552444924   12.28200984644216
C         6.56836682475926   -0.90368079645924   10.69024149938540
H         6.87418042045585   -1.72127191325860   10.05554472274819
C         6.71978961826692    0.40574726160552   10.26186627038218
H         7.14496860644123    0.60733947876455    9.29101240550224
C         6.32477750461371    1.45776772031318   11.07274597317590
H         6.43922698526861    2.47570647194244   10.73356960395419
C         5.79353554780937    1.20223490934609   12.32295746319730
H         5.48662350653056    2.01479686574717   12.97101397732669
Au        3.96068243178024    1.26861545572322   15.44221078952264
S         2.82709607775908    3.04208226614926   16.62492278221596
C         1.16977970684418    2.34209935914189   17.03914312085562
H         0.42495259536424    3.07391848950803   16.73501600586090
H         1.03365750549709    1.42954984335826   16.46432403639702
C         1.16933776821902    2.08672214036321   18.54069944835099
H         0.46430545432315    1.29409302672645   18.78711997077620
H         0.86990455064954    2.99106699256603   19.07168839581266
C         2.59624167851406    1.71818477094208   18.93155215394590
H         2.86373357061326    0.74294787530707   18.51771127537481
H         2.72098412536065    1.68394944358114   20.01305067487736
C         3.47279825053070    2.79748207517323   18.32653141985494
H         4.52647158943111    2.53708168098730   18.27497957588527
H         3.35414153800612    3.74891930234885   18.84381286833838

