73
CSD_code = DODXUQ | q = 1 | S = 0 | Stoichiometry = C38H30IrO2P2(1+) | MND = 4
Ir        4.24726466622599    9.03464199492205   16.39036504964063
C         2.41397794571227    9.45396046906883   16.32974900347999
O         1.28625142028910    9.61733381435148   16.30025749514680
C         6.04050065937155    8.47069418367782   16.46144382623416
O         7.10987227397679    8.07525639326347   16.50766767897012
P         4.31629843596372    8.78716881841582   14.05229759420033
C         5.16559535456126   10.13185403806374   13.17907460482405
C         5.98504029076884   10.99006764412162   13.90456273234683
H         6.07381340702688   10.85379454203285   14.97712005653148
C         6.66768064612584   12.00723839516763   13.26356760411716
H         7.30254244742271   12.67284371411900   13.82827372941151
C         6.53255367801133   12.17138712474510   11.89429024515958
H         7.06571570185844   12.96357357849774   11.39191364725201
C         5.70756174911020   11.32576969787957   11.16864398160615
H         5.59834543137597   11.46124927873725   10.10351238535141
C         5.02011568122517   10.30856011980630   11.80528357869189
H         4.36401354850000    9.65732661591248   11.24377845939914
C         2.73488550715402    8.67335485683053   13.16322908904873
C         1.95574990137703    9.82789997804747   13.10243074354057
H         2.32403098459165   10.74207128699179   13.55207503990342
C         0.73282487035222    9.80369135296051   12.46193034784491
H         0.13336156964917   10.69965685308609   12.40987065585423
C         0.27670817290827    8.62620982824681   11.88736282181908
H        -0.67887271540254    8.60750868278016   11.38669483553114
C         1.04461471117671    7.47600960561549   11.95480173401517
H         0.68824396185884    6.56059666955315   11.50767244906005
C         2.27295147288485    7.49301119678322   12.59401809669587
H         2.87212063868146    6.59502177537359   12.64455322594301
C         5.19528102389433    7.26526463774050   13.58818087482213
C         6.04398118984691    7.16445416461059   12.49344759047024
H         6.22415617783521    8.02306412226015   11.86312133324970
C         6.66754002142599    5.95838346022305   12.22054645660474
H         7.32869934953916    5.88005425196496   11.37121577001560
C         6.44811413279123    4.85739907058411   13.03168971582957
H         6.93818955066566    3.92132471958401   12.81328537995996
C         5.60422693865648    4.95615843317739   14.12803406984847
H         5.43625371756936    4.09832364231659   14.76131016600837
C         4.98346006118730    6.15766575070962   14.40784032304377
H         4.32041239418109    6.25542725501656   15.26277908419714
P         4.26439045909267    9.23071276939314   18.73356292928880
C         5.11138095919262   10.70762023046331   19.36166452467869
C         4.90803869818499   11.16102936185262   20.66276639455200
H         4.21037868067925   10.64753123613049   21.31035041045848
C         5.59164943285728   12.27470205278344   21.11559359846229
H         5.43587117346563   12.62502306843452   22.12451336245766
C         6.47186747215184   12.94180110972558   20.27759149596017
H         7.00128312926863   13.81088757149280   20.63617222603697
C         6.66758227908703   12.50001815107944   18.97883480826093
H         7.34695465823827   13.02548865741679   18.32509776987192
C         5.98805623625378   11.38615321687929   18.52164258828502
H         6.12579631799542   11.03326211536867   17.50534128658224
C         2.66002131668314    9.29737659123351   19.58525640819469
C         1.89136783733373   10.44646378583265   19.40441301292830
H         2.28245299193125   11.25803476336855   18.80278747124099
C         0.64994648542690   10.54867440493972   19.99995405276432
H         0.05839455208723   11.44113566353527   19.86436273454547
C         0.16477235584596    9.50190228059416   20.77042255124129
H        -0.80617300368448    9.58119863121308   21.23421284152349
C         0.92310577996471    8.35666616128958   20.94514469662102
H         0.54436351783574    7.54345839601105   21.54528170368585
C         2.16999551639467    8.24772316041071   20.35254426071658
H         2.76164607738045    7.35397842769622   20.49087918128427
C         5.11091490343396    7.81628089545864   19.49943653146309
C         4.92542433173570    6.57851952843221   18.88598169677222
H         4.30328166643254    6.52008913202745   17.99733356584469
C         5.51993944731054    5.44690323121962   19.40895013893565
H         5.37204840093558    4.48831159479542   18.93535513734692
C         6.31092200800565    5.54801665568574   20.54372709913731
H         6.78013760985497    4.66643267384489   20.95211963658846
C         6.50419588259022    6.77799663425305   21.15062583639035
H         7.12439092143450    6.85410931705798   22.03052077179903
C         5.90646056915701    7.91516247786027   20.63374768678240
H         6.06496436509659    8.87406403497437   21.10542011363020

