24
CSD_code = DODXID | q = 0 | S = 0 | Stoichiometry = C4H13AuCl3N3 | MND = 6
Au        3.10650389351097    5.11769610477784    5.38908905527232
Cl        1.02527437586609    5.80843601217940    5.87281654168907
Cl        2.31205193494896    3.46678354407795    4.03073686299725
Cl        4.06154262547305    6.71201229571491    6.71176122798464
N         3.73797717957892    6.35637742187760    3.26147365375474
N         5.14500407782735    4.49745743693924    4.96703414757370
N         3.59796843534877    3.27041508733597    7.06883840774506
C         5.16944158658584    6.13112582031269    3.14289796238072
C         5.48009252906748    4.69411333103496    3.55928358283304
C         5.39908061268494    3.14156041514603    5.44655147708459
C         5.02475239638552    3.03051663127532    6.92391620057004
H         3.50848204839938    7.34303692910458    3.24144613161135
H         3.23014176750886    5.89118978613117    2.51546639688410
H         5.67618542613301    6.82131944091603    3.82329498572489
H         5.55058816613290    6.30012359172603    2.12592579411268
H         6.54009968013467    4.47577643125990    3.38452178008587
H         4.86832016038960    4.00121625785169    2.97534891676281
H         5.66632346782356    5.16575344030921    5.53845671546224
H         6.45435372295716    2.87874926882184    5.30876356476352
H         4.77810256172086    2.46183970419493    4.85683595898156
H         5.33790457864830    2.04682576843141    7.29993134362327
H         5.55570112697843    3.80164110346870    7.48932883489742
H         3.34446343441674    3.46625402174796    8.03004950485001
H         3.05784421147854    2.47268015536395    6.74843095235498

