78
CSD_code = DODYUQ | q = 0 | S = 0 | Stoichiometry = C31H33F10PPdS2 | MND = 4
Pd        7.94312483048358    4.85469538648223    4.01501900163160
P         7.49432965214961    2.68215478760403    6.75250607658205
S         9.74967674976558    3.66829351900538    5.05935655592625
S         7.16608549144251    2.60227099407780    3.80645261678724
C         8.16426902751522    3.05907225881031    5.10638503244340
C         8.91488443850896    2.50038634011274    7.91509685769664
C         9.74556315319246    1.24910514358165    7.62985704317818
C        11.03753942078353    1.31429234579546    8.44088683187664
C        10.71854440909736    1.40589038065924    9.93062271372504
C         9.83415892188263    2.61530349950717   10.22080402904175
C         8.54713044149342    2.56113413531486    9.39652772321846
C         6.36338369284065    1.23262594532635    6.59040123349007
C         7.02180637558743   -0.00668326175849    5.98140976047486
C         5.93963611204633   -1.04337637784380    5.68614282753709
C         5.19881070453652   -1.41677817035207    6.96715691054975
C         4.58815409145575   -0.17880321878036    7.61785193400772
C         5.66369415631405    0.87038692111985    7.89899331022020
C         6.49833156281931    4.13036609967105    7.30645579455327
C         7.36693401417148    5.38502686739245    7.42924145584241
C         6.53853775363710    6.48977962038359    8.08273104798607
C         5.29300331804160    6.78871102223267    7.25577851881527
C         4.47112153809349    5.52946586757453    7.00125775492165
C         5.33164700321291    4.43800059118835    6.36599168129976
C         6.69738225531330    5.64154454085124    2.66952423670821
C         6.98620873040540    5.17974583729510    1.38981288502190
C         6.26083074831592    5.54264824987637    0.26490467950230
C         5.18532138184263    6.41475963298645    0.41860910751885
C         4.85950579480687    6.89326129245624    1.68247716753934
C         5.61852833719881    6.50060661936965    2.78042858515859
F         8.02571399172744    4.31801599571698    1.28644422734376
F         6.57098743855799    5.07100585296204   -0.94732983625176
F         4.46363405293345    6.78491545937747   -0.64536162597308
F         3.81791146515731    7.72150102133546    1.83507962661851
F         5.28504647380004    6.95853734410591    4.00251733436225
C         8.87751700614719    6.60879982102507    3.83156611855820
C         9.94987908607473    6.53114904626418    2.94985596292392
C        10.78417681499450    7.60168184481433    2.66465109276121
C        10.54057731452800    8.82154443332546    3.29182028013930
C         9.48193861994516    8.93926503248546    4.18513679347417
C         8.67183609134953    7.83655541500695    4.43667958976062
F        10.16360077992072    5.32382554884445    2.37622563195766
F        11.80715215962907    7.48128752757248    1.81176069261452
F        11.32678481011638    9.87448309376851    3.04047414904715
F         9.25350167040708   10.10738326767452    4.79971861045651
F         7.65661097684371    7.95926170163799    5.31435707057788
H         9.54032217287836    3.37221261206480    7.66633384560757
H         9.97395625710146    1.17910392592458    6.56366343681468
H         9.19180561114892    0.35709037113953    7.92797524318029
H        11.61622881905286    2.18647021154342    8.13145698414230
H        11.63919930401690    0.42636523435982    8.24215146805439
H        11.64349440649544    1.48140150414125   10.50341496100508
H        10.20421958498283    0.49565596352345   10.24822798721492
H         9.58539108318032    2.64827674879148   11.28282478201052
H        10.37951046974496    3.52937754174775    9.97664932407699
H         7.93995703566507    3.44030500310162    9.61765190135594
H         7.97642244618149    1.67464214933409    9.67986598678484
H         5.61259896086115    1.58808761475105    5.86875585383102
H         7.74184816918992   -0.44005375878725    6.67536601536227
H         7.54629893423982    0.25253595758146    5.05996676451107
H         6.39738042949033   -1.93130604418867    5.24832390550304
H         5.23594537952257   -0.63680681718980    4.95735296167462
H         5.89534431866478   -1.88761288023220    7.66496976975906
H         4.41347402079287   -2.13975383925721    6.74364430748865
H         3.83433490397740    0.24674940452637    6.95216955621996
H         4.09333955279615   -0.45341498425081    8.55099889692831
H         5.20569342648845    1.75081552419003    8.35473470675323
H         6.38830362334550    0.45766572544491    8.60429135927065
H         6.10241648556803    3.86140653174742    8.29638049298282
H         7.67347350515834    5.71368527829119    6.41748277051572
H         8.26462999015973    5.20105764957742    8.02317791057652
H         6.25480732059530    6.17877814785284    9.09249279870126
H         7.14177471893694    7.39346131199728    8.16558300896435
H         4.67961734960133    7.52848609177417    7.77029379439315
H         5.59827242540693    7.21171942273490    6.30224534180757
H         4.05303542423210    5.15718733268826    7.94107802511505
H         3.64166148512645    5.76825257870540    6.33588569522358
H         4.71940686893602    3.55283738225223    6.17970951045190
H         5.72662265715493    4.80632182864890    5.40070154197036

