64
CSD_code = DODZIG | q = 0 | S = 0 | Stoichiometry = C24H32CrO6Si | MND = 9
Cr        4.18724413412740   -8.77144064041988  -10.42616416461810
Si        0.83289732762073   -9.31665718760112  -11.94957022982241
O         5.23059204128494   -5.61426042575745   -9.93583762594187
O         3.90971029184405  -10.99599170002297   -8.47228660968937
O         5.05509772396437  -11.12204831328221  -12.02860467730437
O         6.96941517250189   -8.98009481875970   -9.39234964201597
O         3.76546993387238   -4.93599965749937   -6.90214561140968
O         3.61351110324365   -3.83636257507792   -8.84047310162823
C         1.38118353960439  -10.04180485574708  -13.62297209191641
C         0.60979929321213  -10.70942885328359  -10.66918259992294
C        -0.77271701188717   -8.29440542948597  -12.14503934882116
C         4.22689051920692   -6.44768576380256  -10.29612623325872
C         4.21315222084109   -6.82536606950122  -11.65729651066476
C         3.21518153396539   -7.67200378963158  -12.13923544258145
C         2.18648459788883   -8.15612969924415  -11.30732217718015
C         2.23664743593949   -7.78826521981605   -9.95357060196679
C         3.22078711322612   -6.92381520482226   -9.44432746081700
C         5.48892526620408   -5.40416512332642   -8.56770493087050
C         6.90038646680613   -4.81165781708044   -8.35465914650452
C         7.17452590950569   -4.97809266312763   -6.84736638947459
C         6.25622243973987   -3.93003368697668   -6.18935008676180
C         5.55431464016626   -3.28599357317553   -7.39155134144341
C         4.55199027543289   -4.34463864330715   -7.91574218009899
C         6.65265214820578   -3.28437443887216   -8.47336080155066
C         6.17872131619709   -2.81399128669462   -9.84657492274665
C         7.85952069322358   -2.41846346111383   -8.10776082747014
C         7.95074213922096   -5.43659823973983   -9.25016072597190
C         3.97235542881536  -10.10778825067313   -9.21403856839167
C         5.89473722657477   -8.86694937286246   -9.80843275938178
C         4.70836067866206  -10.18245885383416  -11.44664922944906
C         2.62538883764266   -4.12173902559767   -6.74467511700677
C         2.47175552165970   -3.43256120439309   -8.11699908939613
H         0.68228803926836  -10.80210913425103  -13.95607318856297
H         2.35897013373854  -10.50822149921013  -13.54446387336571
H         1.42961082397259   -9.28691278861867  -14.40222867698455
H        -0.02353333021722  -11.50055961614183  -11.05747677425258
H         0.15015498265423  -10.35011450275075   -9.75338000770778
H         1.56824757365077  -11.14940628018732  -10.40544813583351
H        -1.58528939112200   -8.92540981713149  -12.49029766603290
H        -0.65405169580536   -7.49023222639160  -12.86561796542881
H        -1.08250460203039   -7.84862726773662  -11.20425845176070
H         4.95635187734010   -6.39178703178431  -12.31401489205634
H         3.18928837677380   -7.89552723412994  -13.19948831880954
H         1.43397958985984   -8.09632031446569   -9.29200438551001
H         3.16496124118936   -6.59384055938593   -8.41603704076262
H         5.38291174912601   -6.35489737138916   -8.02816581756576
H         6.94357438897579   -5.98933038431097   -6.51557136152089
H         8.22545234821215   -4.79479132184916   -6.62954943633387
H         5.53509504880529   -4.39108337495022   -5.51607309470234
H         6.81611841954288   -3.18570808459160   -5.62551145636417
H         5.08529779153465   -2.32504717920969   -7.18418578856507
H         5.90551902941694   -1.76136777396121   -9.79581174362928
H         5.32115145652297   -3.37141671459949  -10.20079198779849
H         6.98430182082908   -2.92180636029597  -10.56917087072475
H         7.54901242745367   -1.37799634827243   -8.03398354686487
H         8.60948903748024   -2.48981531807381   -8.89186373038175
H         8.32412615992370   -2.69914555120331   -7.17035060998684
H         8.00758735293188   -6.50699057824109   -9.06588444310024
H         8.92430962537398   -4.99616773619468   -9.05096859439497
H         7.69752451464996   -5.28272128879961  -10.29493816170016
H         2.78232831948950   -3.38815634487778   -5.94487461713711
H         1.78369148514455   -4.76616234831517   -6.48721827085646
H         1.58956957223062   -3.76984664536107   -8.66642910137629
H         2.44391987458017   -2.34141515879562   -8.02083774381559

