78
CSD_code = DODZAX | q = 0 | S = 0 | Stoichiometry = C32H31F10OPPtS2 | MND = 4
Pt        4.08189093918145    9.40868990325987    3.71278010785799
P         2.89307868170651    4.71191748761317    3.56763799834988
S         3.08997064576051    7.41913412113735    4.79627267409222
S         4.27411906594290    6.86669632564427    2.09047281807362
C         5.78243766807440    8.68652206842846    4.08387355379375
O         6.74333862606961    8.13951071754360    4.35440793386151
C         3.48149060665738    6.42395171044510    3.48492441995323
C         1.23299047891720    4.64172757830881    2.75891253281466
C         1.31617694765879    5.02262566396140    1.27987134047850
C        -0.07145597357432    4.94173173658483    0.64574911748248
C        -1.04693342474505    5.86039525985527    1.37142566572088
C        -1.12662839870174    5.48318467520671    2.84613482546793
C         0.25440550780766    5.56126974825210    3.49376922095711
C         4.08645659596660    3.68942417607105    2.60874802678991
C         5.56663082181564    3.95612932558462    2.97859279027685
C         6.56635818140260    2.93095647283956    2.70154052033956
C         6.13999862851927    1.66380206819680    2.10338182128634
C         4.67604284756302    1.47427908851759    1.69003778336525
C         3.76903626341814    2.19663098234438    2.68326769392032
C         2.69027648951817    4.27179934198447    5.34992630280833
C         1.85385284894954    3.01823460542782    5.60510433441132
C         1.61480222709360    2.87612100767274    7.10861983495954
C         2.93972883770097    2.79714720238767    7.86107603316671
C         3.79150248873355    4.03009249464084    7.57540481985557
C         4.03391026326271    4.17325830503728    6.07412646827377
C         4.81419130571244   11.08213869150942    2.79547379862495
C         5.65144293115367   11.94620209710901    3.49181783065785
C         6.11961282578164   13.13736054454126    2.95048218606813
C         5.74243222567523   13.49173900577923    1.65883379210285
C         4.91064251214338   12.64887244215886    0.92984166814642
C         4.46233960696246   11.46600494052017    1.50763822254456
F         6.03366221913106   11.60234162263340    4.73550724805298
F         6.92870910642853   13.93925456375131    3.65175574282468
F         6.18186609805813   14.63354679386603    1.11902487866782
F         4.54792477093445   12.98235958343337   -0.31517853195269
F         3.65412794632421   10.66286185316626    0.79046350816650
C         2.22798337005010   10.18069668495197    3.40440766249427
C         1.23067137652520    9.58628206509933    2.63820645031646
C        -0.04095405088751   10.11740764627337    2.46935000606406
C        -0.36250862700905   11.32179268309630    3.07924764140067
C         0.59918945416965   11.96503480822261    3.85020629800110
C         1.85387993650980   11.38743339906691    3.99456712224142
F         1.49029238988492    8.40309803441366    2.03333392416530
F        -0.95836160508011    9.46464348647692    1.73424286395002
F        -1.58393409947449   11.85091985347456    2.93295578438459
F         0.30542388792303   13.12833969071386    4.44712485599315
F         2.76507867842329   12.03249496591016    4.75353818574941
H         0.89451936118949    3.59933575814134    2.84428255110182
H         1.99219013835190    4.35249692190420    0.74462756568499
H         1.69431212133217    6.04154668029026    1.18268856632747
H        -0.43473875900577    3.91108524000527    0.69033784275833
H        -0.00129160068316    5.22779850851549   -0.40406160179388
H        -0.71032333008066    6.89220498713234    1.27632340346726
H        -2.03545907507355    5.78865923307720    0.91673494194170
H        -1.51996696231809    4.46767453241096    2.94554822283881
H        -1.80678173597434    6.15804377012608    3.36722680443060
H         0.61627656137865    6.58812054867621    3.43547500014585
H         0.17847178097012    5.28836349140935    4.54872271689278
H         3.93752524613819    4.02785561481122    1.57445733946688
H         5.69208881446642    4.21910075197123    4.03356190459438
H         5.92484396666461    4.84773656289889    2.44612843835925
H         6.82003647766748    1.44716994205441    1.27349939698564
H         6.42195318678417    0.93165833686814    2.87398969128535
H         4.51809642986349    1.88575827494253    0.69100105657242
H         4.42890618874026    0.41173872535385    1.65532801382878
H         2.71909333666484    2.00793202105857    2.44663495199083
H         3.97104954584841    1.81840867103405    3.68854858630273
H         2.15553385910365    5.14280145350242    5.75722650943861
H         0.89344610495503    3.07803250026658    5.09031216495460
H         2.37796435593223    2.13231884894771    5.24266624856137
H         1.02272010326863    1.97978799064804    7.30027545238586
H         1.04533570929900    3.73635416361152    7.46676384750387
H         3.48152900247980    1.90049732836974    7.55109321103928
H         2.75127038874034    2.71782916975621    8.93214729955061
H         3.28336141099912    4.92240534078777    7.94565804268782
H         4.74867487307315    3.95122355266139    8.09252199816435
H         4.62923266815113    5.07072573970604    5.88580946442090
H         4.58763970635953    3.29947781325947    5.72227059116744

