68
CSD_code = DODZAY | q = 0 | S = 0 | Stoichiometry = C28H34CrO4Si | MND = 9
Cr        6.07935143471661   10.43376571460121   20.55939997405725
Si        5.94949796760101   13.35412893224706   22.84324636277560
O         2.97297625968488    9.12496251734092   19.61701748015108
O         7.24047743639653    7.78602792281151   19.86830153694247
O         7.94109931987558   11.17808125304800   18.36215827964344
O         8.66487111152134   10.28559316426600   22.01512736661513
C         7.37804746411536   14.04244867806039   21.78851309209219
C         6.61604746209082   12.56807169813839   24.44404896942293
C         4.66005773044609   14.70926000589942   23.24324711692381
C         3.70731714603862   10.08892527490375   20.21702727240575
C         4.12453585313879    9.78861336843212   21.54108911581688
C         4.75491502517985   10.75288159981133   22.32629532445654
C         5.07500824115971   12.02657583242679   21.80627153838271
C         4.76018170322719   12.26395176497931   20.46539968894293
C         4.05426244078037   11.32740259477044   19.67823464114664
C         2.47382056712876    9.30455606951977   18.28117642629022
C         3.66612652117372    9.48634333583559   17.35471907293112
C         3.67325021674699   10.32567776698714   16.24536118471783
C         4.80594432944834   10.45044320566818   15.45995230035319
C         5.95326275350920    9.73895501512361   15.76254069899517
C         5.95555541727325    8.88976497230410   16.85413764385730
C         4.82376809696140    8.76611375957263   17.63954620463386
C         1.63757161124622    8.02328925189363   17.93069024390315
C         1.29196221960447    8.14274819622396   16.43313549233577
C         0.24136008021446    9.26810620176476   16.38678262497535
C         0.10388323134666    9.66280863777352   17.86175019372229
C         1.38442729467289   10.40825003842947   18.25287619265715
C         0.25757231498822    8.31318561704940   18.58662543469498
C         0.23567703051808    8.41216837948581   20.11216474071291
C        -0.83507810386245    7.30068771165129   18.23025170027887
C         2.31182239420354    6.71544389629898   18.29203008617139
C         6.72097905493564    8.79218697985204   20.11895005047980
C         7.63678411069273   10.36713815947185   21.48384384738793
C         7.18421682515937   10.92370331389852   19.20088883585941
H         8.02920268068424   14.67967234534911   22.37818162428970
H         7.01807892177607   14.63419233710505   20.95223624371581
H         7.98034237556358   13.23308943772586   21.38328778742150
H         7.17982727615854   13.29605681562667   25.01829730255411
H         7.28303595093001   11.74056680344388   24.22159158536583
H         5.82131112177170   12.19842632766012   25.08547621533726
H         5.11825310481953   15.51280604557623   23.81036296706870
H         3.83552379400812   14.32099198944067   23.83427174757128
H         4.24061414215825   15.14417971851836   22.34084871677420
H         3.80898923214604    8.84095378083082   21.96216850996149
H         4.93952333417201   10.54078837234495   23.37249727879197
H         4.95316780428222   13.24080315765884   20.03633287838907
H         3.74506368236473   11.60611119845177   18.68078738110647
H         2.79608057181536   10.89217256458953   15.97037470929661
H         4.78659121174936   11.11105019082865   14.60532939519642
H         6.83641946537522    9.84567427341245   15.15220582263355
H         6.83783111578797    8.32148316911459   17.10336149609473
H         4.83926812563774    8.09414032035408   18.48317255315296
H         2.17243050692923    8.37020304841696   15.83569454788054
H         0.89405452149574    7.19773961120890   16.06641457225630
H        -0.70951825079554    8.92300563842639   15.98299131328392
H         0.56558106101293   10.11024528862360   15.77609673599086
H        -0.80253148774927   10.22427891329960   18.08657917861762
H         1.28658477822148   10.85536925799020   19.24345441734346
H         1.60348484508671   11.21435428751525   17.55548299226995
H        -0.76436514381172    8.69402023690824   20.43868559753325
H         0.93655721228960    9.13375635736724   20.51046753909202
H         0.47322357871355    7.44357559680204   20.54600004461846
H        -1.80329166014438    7.70172344444325   18.52482571950847
H        -0.67564074941271    6.37610661913662   18.78064230036277
H        -0.88060966814992    7.05972783361692   17.17551402764754
H         3.19066906009170    6.55970559603249   17.67062509619019
H         1.62530224940162    5.88853365318224   18.12629907368068
H         2.61559267366881    6.71663493844395   19.33504189428132

