40
CSD_code = DOFCIL | q = 0 | S = 0 | Stoichiometry = C15H20Cl2NRhS | MND = 8
Rh        0.33495146829540   10.26389897423055   14.60727104352037
S         0.34263593193979    7.90594735985950   15.25179529995646
N        -1.91073888061076    8.37149442014737   16.56579584494439
H        -1.54657467013723    9.35441768143502   16.61382537647209
Cl       -1.87787943644329   10.00549654393917   13.97256864324809
Cl       -0.42118425116541   10.95908893610004   16.69943385656445
C        -1.13188140340780    7.46127259150087   15.94174602253572
C        -1.58367510231702    6.12442525435928   15.90334333228017
H        -0.95731293855861    5.39301966008973   15.41951047077978
C        -2.79319978386047    5.79551309583956   16.44975421315996
H        -3.14912905148492    4.77728581629992   16.41055056000654
C        -3.58391215228334    6.78894527318674   17.05377978216115
H        -4.54526338993191    6.55040150357093   17.47560080821933
C        -3.10203112163348    8.06873455000905   17.09158188690238
H        -3.64496596037255    8.88625127658674   17.54012440369086
C         2.48954304847613   10.39596535318375   14.22234280531028
C         1.79865643634768   10.01013526070789   13.00677212438377
C         0.93843070146545   11.07635834275015   12.63106783127634
C         1.01875049697457   12.08760617953961   13.65118921001338
C         2.03226817069479   11.68515854846402   14.59593787098074
C         3.61507289432585    9.62709416389577   14.83390260376283
H         4.52590808252915    9.79625702582531   14.25636371119905
H         3.40072494118309    8.56017001394982   14.83058393548448
H         3.79291749124993    9.93866634219079   15.86003941027133
C         2.11445710987523    8.78491837240851   12.21248748829527
H         1.31899541954434    8.56025724634547   11.50675052729737
H         2.24156381140641    7.92511959572389   12.86769360335575
H         3.04381101314596    8.93692892651565   11.66036468557618
C         0.13308234270742   11.19952750635989   11.37968958293036
H         0.41692530189327   12.11230541639025   10.85522266670949
H        -0.93138058220970   11.25450279624224   11.60740274301144
H         0.29771286561559   10.34888946553769   10.72429197935110
C         0.37427251081677   13.43454150159455   13.57882890747620
H         0.22584683204236   13.85153588052330   14.57263320435566
H        -0.59145257845127   13.37153416589913   13.08215117473651
H         1.01327393110541   14.11586718863279   13.01250650686520
C         2.56261465957931   12.54173084136725   15.69824233690067
H         3.27442310351137   13.25863603567863   15.28466313263712
H         3.06869739239555   11.94484749658319   16.45296193779396
H         1.76264534578552   13.09885339650544   16.18222847562204

