40
CSD_code = DOFCEH | q = 0 | S = 0 | Stoichiometry = C15H20Cl2IrNS | MND = 8
Ir        8.78918420956247   10.23897277250140   14.57504149397551
S         8.80310009258899    7.83652429529112   15.22614165148888
Cl        9.55371946901706   10.93012327146211   16.69387950957877
Cl       11.03783581231169    9.99969282381423   13.94828111198281
N        11.05376914383712    8.32333394164792   16.54841033468379
C        10.28104580966168    7.40679320601918   15.92553254685526
C        10.74009260417488    6.07250732593547   15.89409279022833
H        10.11821602241233    5.33571265141015   15.41272855107253
C        11.95070772119304    5.75131731777739   16.44299418776399
H        12.31171416523883    4.73479706275838   16.40767286290344
C        12.73546038080619    6.75123908214412   17.04414969476180
H        13.69760763276698    6.51901551233651   17.46762316847667
C        12.24640982017531    8.02824999082146   17.07742501184351
H        12.78439209994189    8.84985344101216   17.52433235572103
C         6.60840261471703   10.35849728979964   14.15844998775726
C         7.04377369529686   11.65291807016590   14.52672598846758
C         8.06365291583880   12.05968629164445   13.58937209438736
C         8.15684008039745   11.04604433676234   12.57087890230834
C         7.31128482412071    9.97487830420404   12.94792533827419
C         5.49372249805712    9.57363913258744   14.76574816928103
H         5.29493693501597    9.89644783333943   15.78455954272035
H         5.73592647152828    8.51265340262600   14.78283993467813
H         4.58462519714629    9.70689947455407   14.17621303945416
C         6.50435456430719   12.50596334144334   15.62559888651658
H         5.80747929646695   13.23782667658186   15.21261772860836
H         7.30479631175569   13.04604930755680   16.12808980932084
H         5.98052921100179   11.90720271358944   16.36681530789241
C         8.68641605035593   13.41466811298262   13.50445212820682
H         8.76919546731301   13.86879159304002   14.48910324592978
H         8.07399782928810   14.06540646176366   12.87642915060489
H         9.68081079571513   13.35075335843963   13.06821115383311
C         8.98000947523591   11.16557152861244   11.33283766218621
H         8.74867764223099   10.36790178501269   10.63220601375326
H        10.04227206021529   11.11190631346054   11.57252589409586
H         8.78873148058603   12.12542719948008   10.85376133514821
C         7.01957060824488    8.73882625951219   12.16441522770288
H         6.08564600743357    8.85997500205735   11.61248890097031
H         6.91482774202575    7.88198074954328   12.82745652577004
H         7.81889166773769    8.52659736680676   11.45936714451696
H        10.68837357427925    9.30225539950727   16.59930561627606

