38
CSD_code = DOFDUX | q = 0 | S = 0 | Stoichiometry = C15H20Cl2Zr | MND = 12
Zr        3.87760204407481    3.30782242941316    5.50114413561866
Cl        3.39150176491947    4.98464766674415    3.93950429399579
C         5.91438766395806    3.30755782452396    6.88948002092178
C         5.99731140112887    4.45270769620792    6.06112760292540
C         6.18265589797899    4.01034715496560    4.72979272026858
C         1.55373178120948    3.30766735729246    6.09376284108292
C         2.11056755157412    4.45924445268622    6.72678911477828
C         3.00850719851634    4.01971823048623    7.74011577122267
C         0.53701900823139    3.30771905184716    4.98588392200787
C         1.72415626073610    5.89437099124555    6.50422520104573
C         3.64822935574197    4.94606878968643    8.73802648900714
H         5.95404905241434    3.30755514109643    7.96988476793887
H         6.07251653818312    5.48160774798689    6.39576987901496
H         6.36895077209774    4.64523272509577    3.87218827000332
H        -0.47775361507462    3.30882327392247    5.38953856719704
H         0.65709161056022    4.19044809310924    4.35567697503936
H         1.06523628459558    6.23362265192913    7.30765328635706
H         1.19931866195481    6.01649119775021    5.55903706432452
H         2.60528177812565    6.53977998682134    6.49073377451436
H         4.24482404498742    5.71699624781895    8.24536993995566
H         2.87436274279459    5.45210100022954    9.31856431796125
H         4.28523021978227    4.40721714248583    9.43584796157893
Cl        3.38851638489104    1.63282406608482    3.93940204771542
C         5.99705713984273    2.16238242396295    6.06112643718913
C         6.18250143405554    2.60465260339838    4.72979599804819
C         2.11093313082184    2.15618676642995    6.72663712005102
C         3.00858794136897    2.59591810918115    7.74015357413918
H         0.65565449174944    2.42397262085231    4.35685873982844
H         6.07189538685046    1.13346773082675    6.39575198642038
H         6.36855784310943    1.96968677785620    3.87220790517499
C         1.72506126881071    0.72093782231378    6.50393754596477
C         3.64829364096003    1.66976175497060    8.73824554027424
H         1.06615364109923    0.38140484966008    7.30727218902316
H         1.20040132775437    0.59865418489741    5.55866124995307
H         2.60644455159881    0.07587709866871    6.49056593840114
H         4.24527959276045    0.89903003290820    8.24577255692514
H         2.87437838260854    1.16349107017004    9.31851101728533
H         4.28490582322770    2.20880523447401    9.43628323684636

