65
CSD_code = DOFFAH | q = 0 | S = 0 | Stoichiometry = C21H32BF3N6PRh | MND = 6
Rh       14.42975158604587   13.55696280224773    7.82093204189191
P        14.11404402712440   15.65367277582614    6.97975133822078
N        14.88839707685120   14.34013121517213    9.81816557670987
N        14.05796997006942   14.00328055087424   10.81076557019923
N        14.57094731497795   11.75177548825297    8.78802167160206
N        13.92149368655300   11.67399465575781    9.97237853881435
N        12.26320846383887   13.27138670670774    8.32476777921979
N        11.97998898415659   13.17782252929686    9.63279251688061
B        13.10040268957762   12.82488469561106   10.61639717345040
H        12.65039192420740   12.48605514491891   11.65107381823491
C        15.78713702732352   15.19148237703882   10.29988901098293
C        15.50629209994681   15.43197338619837   11.64819531331816
H        16.04170179482122   16.07501522040046   12.31727954046398
C        14.40096864232292   14.65390518079257   11.93841964904686
C        15.14047467515688   10.56941061098119    8.55586544028319
C        14.85159697797192    9.71086586053460    9.61802594612017
H        15.16624795887056    8.69265554742323    9.72578938265836
C        14.07784025436401   10.44372619170307   10.49428339550850
C        11.12225601034961   13.21423319346435    7.64901628393673
C        10.06059621637904   13.12357304787628    8.55668397741389
H         9.01543703162459   13.07210771042086    8.32692086044792
C        10.64578642104925   13.09566588848613    9.80739477898632
C        16.92523082559069   15.70062636026119    9.48921107393862
H        16.90074422042780   15.21919230196201    8.51334118704409
H        17.86659696243129   15.46138208415427    9.98204834354161
H        16.87771421476776   16.78266321727676    9.36731142805950
C        13.67460407065849   14.51712367341158   13.22780550001411
H        12.61312822408001   14.71647429373280   13.09385332430737
H        14.07932288352727   15.22079527102228   13.95045903632389
H        13.77971980946423   13.50842971219259   13.62441087133021
C        15.94978162125738   10.20015833911043    7.36320860053283
H        15.34404429941073   10.23467543110387    6.46029942491449
H        16.32485844292685    9.18718644838047    7.48991899800789
H        16.79124563795234   10.87668588922375    7.23436559744103
C        13.50458581172628    9.98899255894164   11.78878528927855
H        13.86626227421776   10.60304960103955   12.61144171156380
H        13.79831940405533    8.95750300453135   11.96529884080820
H        12.41778375382959   10.04624440116953   11.77310429360594
C        11.06062369187894   13.13508223492928    6.16646161985801
H        12.05913245570028   13.25109595680515    5.75402121425673
H        10.39673438840293   13.89099270311199    5.75025740042069
H        10.67851064241760   12.15725895482018    5.87405124572870
C         9.98920792300746   13.00004544032519   11.13769283807397
H        10.20983256289969   12.04338161139909   11.60919746383948
H         8.91254008913823   13.08970369382382   11.01920965865482
H        10.34128369418499   13.78976868558393   11.79864454369708
C        16.06488399285219   13.25293218019849    6.60260798011256
H        17.13057268191137   13.34915640880810    6.52218802676221
C        15.02910296550577   12.85885005842028    5.95781248532889
C        14.64221029956123   12.34192832956795    4.64597302915927
F        13.75712100801046   11.32623525614554    4.68015413553196
F        15.69331082967625   11.87951349300907    3.92487875191237
F        14.06858031182546   13.29337066512023    3.86296007723116
C        12.77136784256368   15.98284580532041    5.77120329971987
H        12.78868647689413   17.03241984710264    5.47907235913888
H        11.81317010999648   15.75084540924531    6.22770418323124
H        12.90845834722066   15.36361059550575    4.88824136171289
C        15.48668595319675   16.48133420706883    6.07712570194590
H        15.19364013907003   17.48980866400480    5.78907966898637
H        15.70877760503297   15.90071655460379    5.18370374835196
H        16.37949545720777   16.52698181118418    6.69398789773113
C        13.67290773025629   16.93197395498418    8.22578158787742
H        13.48501555363607   17.88884497719561    7.74061825111964
H        14.47096348884406   17.04185655684512    8.95384818362793
H        12.77391046887857   16.60668257727480    8.74725016052965

