76
CSD_code = DOFFOV | q = 0 | S = 0 | Stoichiometry = C24H42BBrN6PRh | MND = 6
Rh       12.14863096018500   12.32443496115155   10.74300598090578
Br       12.10056943571555   13.13062949924350    8.44394978814785
P        11.81342223541786   10.22773437747069    9.87288759174175
N         9.86004998038498   12.72743848144489   11.02262553184698
N         9.56803774210039   12.94017212695401   12.32296973943761
N        12.25598057450924   14.20219655732864   11.54742714682975
N        11.53973125025143   14.41291592774669   12.67085220076997
N        12.33697439415664   11.57793485837296   12.69263590585145
N        11.54430264063141   12.12107077768895   13.62800053501782
B        10.65827661058860   13.33371359390005   13.32460013772433
H        10.17784723770774   13.74367628741404   14.31872425631482
C         8.71227856311210   12.72678236234820   10.34919343130717
C         7.65220526178793   12.90017339601556   11.24805106397541
H         6.60819321554195   12.93341161298846   11.00974639419333
C         8.23372393645547   13.03785132770991   12.48939512467959
C        12.84375136429064   15.34796847664492   11.20660901016981
C        12.49704466588915   16.32224081563041   12.14664446911635
H        12.81074693395754   17.34627997059432   12.15124828158074
C        11.66852315024128   15.69688851169569   13.05482123412351
C        13.06385773118986   10.62362430907157   13.27804364867915
C        12.70483733294028   10.54889603740335   14.62556476511830
H        13.10745243549678    9.88046225312072   15.35957320287667
C        11.73808074122860   11.51627696478776   14.81235258575592
C         8.55524232807128   12.66165930650683    8.87152482920052
H         9.51285588273612   12.63142594302183    8.36682004598335
H         8.02559600086473   13.55476028914072    8.54009947451459
H         7.95328501598796   11.79971229424994    8.58249302585735
C         7.56716499717116   13.24379566245508   13.80209345328032
H         7.89119024479563   12.49446433929134   14.52244783678319
H         6.49032999401222   13.16793084860672   13.67393184200700
H         7.80166881073400   14.22662893751684   14.20834802267026
C        13.69913014606700   15.57740050934792   10.01424307579875
H        14.24979938003116   14.68103719704169    9.74688040982976
H        14.39438315057823   16.38873951651298   10.21927120554928
H        13.08056475032225   15.85755188291028    9.16188603458837
C        11.01159475657371   16.28819487676216   14.25018384431095
H        11.30146502856260   15.75915999016349   15.15652579832451
H         9.92775685871740   16.23810002819086   14.15918476664532
H        11.30720030132523   17.33016490639029   14.34112915741805
C        14.11523548085926    9.78383405637508   12.64193126887912
H        14.43915322906801   10.22937102627266   11.70733197118982
H        13.75744160531205    8.76912390391985   12.46346333758849
H        14.96631096080769    9.71659697903280   13.31811667076076
C        11.01759797215144   11.86506503801156   16.06406846308672
H         9.94124455310507   11.77662153335775   15.92947517989008
H        11.23650353538323   12.88833649754519   16.36430375245474
H        11.33046026284042   11.19208681002834   16.85827114879402
C        14.16934411410631   12.25494652629658   10.55796199953780
H        14.54096935483892   11.83291394665556    9.62541106256509
C        15.03434370864333   12.75326332904883   11.42326403610062
H        14.69777930257282   13.19710545632017   12.35518627256143
C        16.54573258978610   12.79182601246860   11.28391462244196
C        17.15897703171398   12.11319718282240   12.51535421654669
H        16.89829903050449   11.05753960113759   12.53978184032423
H        16.79796849632984   12.57824029072783   13.43043983067651
H        18.24399193620558   12.19737645536172   12.49277300225874
C        16.98479840786253   14.26148832159145   11.25443200684700
H        18.07118006241467   14.33099763851690   11.25511183449816
H        16.60490070239208   14.79408861562068   12.12377749598033
H        16.61005255145071   14.75249584737141   10.35997813581387
C        17.04911483807135   12.09335098019720   10.02114300536360
H        16.76510283709743   11.04290002089700   10.01805678972089
H        18.13490226075908   12.15161876303098    9.97677372748755
H        16.64739509863619   12.56819831285052    9.12938700853545
C        13.21961585616444    9.28159694367196    9.15985031154177
H        12.87727632757808    8.29506200761322    8.85051812081367
H        14.03781057257402    9.17549294578468    9.86503514845412
H        13.57504625449105    9.82665560118196    8.28574412724296
C        10.64591193828962   10.00797105830725    8.47588052639683
H        10.64665207773661    8.96097355886928    8.17273927219553
H        10.94247944820681   10.63086095036285    7.63493476931031
H         9.64567868056086   10.28774528689020    8.79327050562267
C        11.03423597555411    9.01981502811410   11.02327676149577
H        10.91433028604164    8.05464221630772   10.53293646009396
H        10.05266553471693    9.40718888649745   11.29635440234366
H        11.61475108486932    8.89581235616471   11.93136606573467

