73
CSD_code = DOFGOW | q = 0 | S = 0 | Stoichiometry = C23H40BClN6PRh | MND = 6
Rh        6.09667872918665   13.55479803352479    4.53339744501575
Cl        6.47393903465781   15.79804484729789    4.52781884586964
P         5.61884331969781   13.85374978085426    2.30807741590697
N         3.89337202930942   13.95811479483955    5.19179671749429
N         3.36889223951258   12.86055352074962    5.77178576760316
N         6.26644429209659   13.41418860443961    6.59425592075726
N         5.38157424742473   12.58869642567917    7.19121423661944
N         5.76374831226802   11.45734389380354    4.43280976445018
N         4.94480351254710   10.95046593485275    5.36646485548727
B         4.28586337782157   11.82213533981586    6.43277472586001
H         3.66863045577547   11.15052069403499    7.17749103132418
C         2.92125361443239   14.85677790774320    5.07315832506081
C         1.72330994564189   14.30048460851028    5.54149770020317
H         0.76132532282392   14.77192375455334    5.56451228799320
C         2.04825812736417   13.03590479738809    5.98313808453366
C         6.95366124271560   14.03773506312005    7.55280410350276
C         6.50753629502130   13.58156553757130    8.79574980630466
H         6.86592463555374   13.89006374201355    9.75695564808423
C         5.50888800456465   12.66997366944411    8.52867315575579
C         6.16788960985953   10.44129357528058    3.66371423664680
C         5.58413661441986    9.26035183335856    4.12671517865837
H         5.71358856179408    8.27853522451321    3.71812691178718
C         4.81380698887532    9.62232656456369    5.21214256473290
C         3.09969686394932   16.26939308882665    4.64287977484116
H         4.14341295320591   16.47600744072415    4.43165181598452
H         2.77682216223949   16.92123892400358    5.45476598419520
H         2.48428882982358   16.50086975641644    3.77372568880283
C         1.15568687337393   12.00514700536548    6.57623155811528
H         1.25157167121744   11.06033199082685    6.04373643071466
H         0.12404155463908   12.34243815710132    6.51494317689958
H         1.40376368707395   11.83023982365599    7.62227233617030
C         8.01749679204495   15.06081795094290    7.37253717188558
H         8.98241208500490   14.59321960015938    7.17841943402526
H         8.10224895316244   15.64478686493500    8.28643405613019
H         7.77396285084725   15.72418496491114    6.54776510789905
C         4.69533634248863   11.90013397054969    9.50658272708390
H         3.64519044514900   12.18036858911493    9.44125542924714
H         5.05116582026308   12.11265933202822   10.51157106879605
H         4.77459833414311   10.83002294513055    9.32352911761440
C         7.09422344402055   10.47854611005564    2.49765166221710
H         6.99742950879792   11.40056494364805    1.93539188089865
H         6.86773384296451    9.63843705820859    1.84225900631305
H         8.12756013276622   10.37463766995022    2.82740416945039
C         3.98144700055588    8.74564026528179    6.07626324828213
H         2.93994070751473    9.06074449883701    6.06251021947295
H         4.32985029176235    8.77672003364456    7.10694634355678
H         4.04463849583347    7.72221002183799    5.71525831925634
C         8.12959900611861   13.14038124071371    4.17374429463981
H         8.15333339857584   12.62270786078757    3.21159988927895
C         9.13687184887594   14.28168831510855    4.04568731395050
H         9.13494723089021   14.91924234748439    4.92517986076983
H         8.95472322166120   14.90833870498965    3.17414216794671
C        10.47133161749573   13.53433064429557    3.95087216529868
H        10.65139818688938   13.22809131861164    2.91856263588243
H        11.30915659782798   14.15717029709003    4.26247750903900
C        10.30511648746835   12.29555020993917    4.84968976126374
H        10.90292511070081   12.38451847185099    5.75701890069601
H        10.63647862577273   11.39532261772922    4.33012255910291
C         8.80314521078839   12.21389322513034    5.19165068194710
H         8.64455170763930   12.56460506708992    6.21003899780229
H         8.43123361471553   11.19023366215950    5.13420575392764
C         6.93641933787716   14.00843264598879    1.02856494113062
H         6.48342803019782   14.02792223675795    0.03812346615722
H         7.67219522437615   13.21131395494728    1.07197302605639
H         7.44575358395246   14.95347606984129    1.21039649363655
C         4.69332224357241   15.36495443755153    1.84325850860756
H         4.60074098731492   15.41295680318127    0.75818772934572
H         5.21982241116287   16.24309032347982    2.20851983900363
H         3.70422239274088   15.32971223868157    2.28883999018685
C         4.44591009121458   12.63639764468473    1.56988071865102
H         4.23068109205443   12.90228289919910    0.53586658312605
H         3.52461569097507   12.68207893432808    2.15000847154591
H         4.82158889291458   11.61969867430246    1.61132728344499

