59
CSD_code = DOFGOV | q = 0 | S = 0 | Stoichiometry = C19H35NP2PtS | MND = 4
Pt       -5.62905671572492   -7.93596672435638   -2.58841629204405
P        -6.45019683783521   -6.58698422713268   -4.32051882671026
P        -3.93818403824783   -6.32323734210014   -2.40737767368980
S        -4.60110892606967   -9.08003936610216   -0.86131977459312
N        -9.04562986197086   -8.65348523298663   -4.21797102037567
C        -7.11143038476192   -9.32082261564423   -2.68775125826100
C        -7.27498812686677  -10.51297859283260   -2.04253818168856
H        -8.17034477558893  -11.08529046595328   -2.27858955995310
C        -6.43746466866470  -11.12296890007841   -1.07273597887070
H        -6.74198624321736  -12.10040207538481   -0.71972095598286
C        -5.32382228700746  -10.58917830857507   -0.52701773859102
H        -4.77760942064532  -11.13138273490152    0.23349546518099
C        -8.16354411655447   -8.95829552130448   -3.53333900163753
C        -7.97825420041876   -5.60772306426546   -3.87313288933718
H        -8.80108559407146   -6.21385271273114   -4.27003444739197
C        -8.07271096287416   -4.19198628316041   -4.43268001127178
H        -9.04550665710064   -3.77625663504860   -4.17410010334192
H        -7.97739605847020   -4.16702018673103   -5.51487356858112
H        -7.31137564649557   -3.54583026840524   -3.99828353809620
C        -8.09408415054305   -5.57429174352405   -2.34858598948730
H        -9.09612735655045   -5.27549200107700   -2.04774808633130
H        -7.38478720413975   -4.86585322370352   -1.92443723295002
H        -7.89187416760563   -6.56369227747338   -1.92699871507018
C        -6.79028263816563   -7.32809082459909   -5.99543278404060
H        -7.75174885527366   -7.83890752582073   -5.87636406941277
C        -5.71522409223236   -8.38192444977017   -6.25919721765795
H        -6.00919783169395   -9.02829483099761   -7.08334839877610
H        -5.57468125126106   -9.00215576119846   -5.36976334273853
H        -4.76262001771000   -7.92059688490138   -6.51513112729165
C        -6.90232500470175   -6.34672861694585   -7.15685238181654
H        -7.10611876389954   -6.90362004980564   -8.07019669387375
H        -5.98125461732379   -5.78725514407142   -7.30647748826565
H        -7.72165162778742   -5.64926607610305   -7.00717562427033
C        -3.62799490439538   -5.54436738935645   -0.75126269881559
H        -3.15826262072981   -6.34218036008018   -0.16353093915150
C        -2.71561558856806   -4.32324952888180   -0.78536051313482
H        -2.50597800467083   -3.99379898195281    0.23122485817185
H        -3.18836947704682   -3.49747514614653   -1.31321015888821
H        -1.76804842504709   -4.54608716206889   -1.27064964457194
C        -4.97339173050083   -5.23006050178342   -0.10160992444458
H        -4.84357330765356   -5.00148985165266    0.95432415450957
H        -5.63694917976760   -6.09392219272514   -0.18712284714981
H        -5.45059152451861   -4.37286016405031   -0.57406704301492
C        -2.24520681822471   -6.81651290490877   -3.01659788385978
H        -1.69231986944428   -5.91771704489484   -3.31899077068153
C        -2.44785129775274   -7.73084157844972   -4.22423839752516
H        -1.51261507329886   -8.21236727769655   -4.50481835656501
H        -2.81275943221042   -7.17794538598025   -5.08663465927075
H        -3.17466375914627   -8.51054469524247   -3.97559546626735
C        -1.47325809541744   -7.56223700617431   -1.93209990686954
H        -0.56861564420291   -7.99705809094277   -2.35471347122292
H        -2.08279528324459   -8.36862447404148   -1.52730718816613
H        -1.17937281141564   -6.90390465674738   -1.11838762355954
C        -4.38336665006381   -4.87701351786722   -3.47865878518982
H        -5.02776787943948   -4.22959783767147   -2.87727135516660
H        -3.48741273148205   -4.31145247370536   -3.75261939501513
C        -5.13763152241746   -5.33359449084976   -4.72094034703474
H        -4.44865117790796   -5.82917809098512   -5.40881724310974
H        -5.57906408996840   -4.48254852745764   -5.24432988677142

