68
CSD_code = DOFHEN | q = 0 | S = 0 | Stoichiometry = C22H37BN6PRh | MND = 6
Rh        5.83873331825789    1.64586704978715   12.95036324383711
P         5.82976258429238    3.37833963666719   14.39999522645444
N         5.70885309572247    2.99007959975924   11.09293486290890
N         6.82876756340804    2.99210578757355   10.35902087835439
N         6.05300791887147    0.21529579790341   11.50690771238857
N         6.94074293139610    0.50957496944012   10.53009585734661
N         8.13232028755132    1.59829471038946   12.88850668577864
N         8.66967661991626    1.86698651825449   11.69492716009646
B         7.79547404481913    1.80241198252631   10.43955244527171
H         8.47543077135591    1.77476546817991    9.47553028081829
C         4.90661255208638    3.93603349764950   10.62392539241698
C         5.54547948725174    4.59795052806046    9.56939494177589
H         5.16562352892234    5.41468066601981    8.98846844516629
C         6.76604798068623    3.96555195560743    9.42813415915869
C         5.52879882965639   -0.97857887738358   11.23155659756144
C         6.09298187654801   -1.46405959357245   10.05038531899037
H         5.87737903038282   -2.39675021138795    9.56872200044858
C         6.98193041807322   -0.49502620222737    9.63472827949374
C         9.11598841557050    1.51277070365205   13.77391038880505
C        10.33426966483623    1.75404399917860   13.13014432262879
H        11.31224960607693    1.76046267981191   13.56864556649039
C        10.00866432167495    1.97214176346011   11.80442851181476
C         3.51523981161000    4.11602411967805   11.11830483075430
H         3.36648473224148    3.48232634945103   11.98868319679741
H         2.81100386411843    3.81932065139962   10.34024397288680
H         3.31092828563794    5.15507596080503   11.37269240121451
C         7.85491801774123    4.26122093877220    8.45977478241006
H         7.99828385982063    3.42904431157260    7.77194910503283
H         8.79570545368935    4.43220118858464    8.98028064342805
H         7.60140213412501    5.14951037133560    7.88660777155621
C         4.50537996770638   -1.70499218405623   12.03292140292929
H         3.59657606234632   -1.11757212227089   12.12939656776427
H         4.87402525972261   -1.92019816347432   13.03220213655227
H         4.26952865011958   -2.64319342213779   11.53464175986012
C         7.84066566238195   -0.52832592504680    8.42040910675655
H         7.61208125766182    0.30591206955134    7.75957394893502
H         7.66295755649050   -1.45804104423226    7.88539105537998
H         8.89461573272795   -0.47299027648032    8.68684108585214
C         8.86917116017662    1.15202765279529   15.19550259422450
H         7.79911874147297    1.01028469024696   15.33065877321890
H         9.22723862836283    1.92876316896177   15.87145956952966
H         9.38761717512448    0.22630243064348   15.44415131695157
C        10.91640832485870    2.27542074167343   10.66653042645843
H        10.62850333901384    3.20630310765865   10.18104143485976
H        10.87939840197914    1.48292056628694    9.92054331206960
H        11.93692398082897    2.36760084618865   11.02963802322931
C         4.94355353228274    0.34793465110627   14.35499574406707
C         4.01171286594719    0.90288664025788   13.70695463339283
C         5.39758154910541   -0.59565068564308   15.39714104729404
H         4.59408397183181   -1.29876961125505   15.63019274996549
H         5.65739085841558   -0.05997325204089   16.31130831629006
H         6.27355768409132   -1.15596217324194   15.07207773054417
C         2.57004016815969    1.10088218869151   13.45195732462059
H         2.00213827413573    0.28079354980895   13.89823260891766
H         2.35546656939414    1.13815607038497   12.38442647841256
H         2.22844607437746    2.03588600530142   13.89937205502449
C         5.70916672620359    3.08733545077977   16.21804512009657
H         5.72340387046335    4.03151891770422   16.76048428555782
H         6.53810624818220    2.47064327873959   16.55347471095911
H         4.77760380124244    2.56392963024549   16.42485977600824
C         4.56401715095378    4.71336650089189   14.28321100971833
H         4.71431368934016    5.44791969203516   15.07357191648154
H         3.56717949487382    4.28907906075113   14.37461706456509
H         4.65483943449223    5.20114206931138   13.31713939190634
C         7.32518115911246    4.44882719737435   14.33371068683737
H         7.23442888793806    5.28993578380178   15.01999719577786
H         7.43531206467741    4.81993885512846   13.31583801578515
H         8.20800501746479    3.86689172260947   14.58207464111824

