54
CSD_code = DOFPOE | q = 1 | S = 0 | Stoichiometry = C22H26N5Pt(1+) | MND = 6
Pt        1.38524618686425    3.48180428862601    8.08232569672631
N         2.01016630962581    5.32464276169626    9.18632685753701
N         3.30657503471793    5.58670984877822    9.34125306254609
N         0.26446869209005    2.75658279038738    9.86176062457691
N         0.53022743380429    1.56020416509399   10.38031034964972
N        -0.48395829095778    4.62421134124658    7.31035232233926
H        -0.91889124997065    4.94801671986517    8.17213784718098
H        -0.13578762160248    5.42888772547661    6.79040194833278
C         2.99002540787918    2.61732686223137    9.02758915276726
C         4.18687896095783    3.32145350119117    9.18235679938027
C         5.26927486074665    2.73635459253395    9.83119221867813
H         6.19450372044928    3.28550615450866    9.91981634259220
C         5.17213116823664    1.46766088068612   10.36523824670696
H         6.02171460278820    1.00864831987143   10.84434834507162
C         3.95261392460410    0.82251352490697   10.33335653327904
H         3.84077391643389   -0.13531673406765   10.81869945307699
C         2.85972169134256    1.39261681806287    9.68848255448322
C         4.33614895683299    4.76373260571707    8.75056436895740
H         5.29704066343275    5.15067162093667    9.09404298580793
H         4.30164463961319    4.85460728004417    7.66294011786554
C         3.48783550190131    6.67256742473458   10.10533408900500
H         4.46278776645400    7.04482761181559   10.34503487326742
C         2.24135621404139    7.14373548502397   10.45956788214207
H         2.00934504485476    7.99584154225588   11.06238748093604
C         1.34939311948332    6.26002758712966    9.85881064731757
H         0.27778785507849    6.28235067098507    9.89422728885251
C         1.53105065460292    0.68098688900890    9.82244760086236
H         1.18887951289951    0.29736719614866    8.85884802744729
H         1.63713410362278   -0.16334845337826   10.50588317305674
C        -0.22531612134378    1.32838402362548   11.46258410657386
H        -0.15799920884715    0.41737658107159   12.02123930169257
C        -1.02900113488618    2.43269242785057   11.65207219293942
H        -1.75632959413289    2.59000984607712   12.42005544607461
C        -0.67831070428462    3.30092053534720   10.62233183834348
H        -1.07187645013109    4.27939325498068   10.42650715974724
C         0.86828079675176    1.82817742122108    6.96254862417927
H         1.67571968743208    1.10359718564216    6.85797044129039
H         0.56631597690641    2.12762884217047    5.96022687124103
H        -0.00225355975139    1.35912922361323    7.42514742379938
C         2.34675156532343    4.10235068912233    6.36699445842775
H         2.55554869692802    5.17275725044725    6.44241258883601
H         1.69700403694482    3.95927771564996    5.50375700366847
H         3.27156865184437    3.56230036316639    6.16508731685909
C        -1.43258150068521    3.89992892959500    6.52662424118643
C        -2.36185885830318    3.07652043656214    7.15104115717875
H        -2.38844131559159    3.01589507954522    8.23051854066941
C        -3.24855374432865    2.33539774390538    6.39171623555652
H        -3.96862411640704    1.69898186436316    6.88249839163066
C        -3.21671880884137    2.41223983483730    5.00925145376333
H        -3.90832924636359    1.83195733108429    4.41964171469022
C        -2.29718796349196    3.23918745867250    4.38668486897074
H        -2.27340174263913    3.31061748233440    3.31059094806828
C        -1.40865622924642    3.98540734890460    5.14051156874120
H        -0.69713789368502    4.63588010870974    4.65134921542353

