50
CSD_code = DOFPEU | q = 0 | S = 0 | Stoichiometry = C24H19N5PdS | MND = 4
C         2.31249800290000    8.30386819537908    4.69654855541305
H         2.24885433395449    8.56455510269420    5.75308751932000
H         2.32189513400289    7.21850834932151    4.59188937175270
H         1.42677873948319    8.69675398633071    4.20114736601322
C         3.53937059232168    8.87446586107319    4.05598312159163
C         3.66953607830275   10.16250617547332    3.65069316764852
H         2.98058037782786   10.96944613388107    3.79352285875232
C         5.49975122919270    8.69385302536596    2.99475187541578
C         6.90233285528063    6.95735059582367    2.34368089407118
C         7.73154575499079    6.36056233512643    1.29800792811829
C         8.23645007411688    6.85939752187804    0.11256170947665
H         8.05544733761232    7.88314040851537   -0.17464414478508
C         8.98097483777643    5.99813238560748   -0.68025120777590
H         9.39127197770623    6.35496715383726   -1.61378132970932
C         9.20966110560626    4.68201859931637   -0.29616323673186
H         9.79281194078286    4.03910362534888   -0.93960722106042
C         8.70577610571412    4.18018605715030    0.89545627707361
H         8.88064502019128    3.16097030266006    1.20117209882395
C         7.96115798073802    5.03323739195767    1.68650256811085
C         7.31900084160388    4.86571785641183    2.99044091184902
C         7.00442261437191    3.69831925518674    5.00064996920623
C         6.32829087119551    4.69833125475703    5.74017694173418
C         6.20009218142782    4.49023287820946    7.11536310033391
H         5.76765317780815    5.24825620528114    7.76072637507783
C         6.63104673044131    3.32193999544722    7.72372845237835
H         6.50635020989321    3.19778402519257    8.79051906382130
C         7.20754874537877    2.31429943510293    6.96991446904810
H         7.52042311076961    1.39520250212852    7.44517996183311
C         7.41177542047047    2.49157965405420    5.61693891690977
C         8.09828018777026    1.44708267417384    4.79429230667060
H         8.23179807118704    0.53186820672738    5.36651103091052
H         9.07267334968923    1.81128301793061    4.47270176129635
H         7.52028414774883    1.23693563517481    3.89760448243873
C         4.57436516238802    7.80018409651887    7.07526672470495
H         5.40965552366807    8.40297675431711    6.71879137185171
C         3.83388314080136    8.19147110874078    8.17626092208074
H         4.07666735231631    9.10600363295181    8.69407330772562
C         2.78358425730401    7.38811051611284    8.59830022920509
H         2.18716085730632    7.66402520139593    9.45419743844834
C         2.52361487669550    6.21997149827648    7.89643959637653
H         1.72017278434510    5.56363107935465    8.19071797152908
C         3.31714201735023    5.89818118684589    6.80962683863762
H         3.15854236881626    4.98313046671755    6.24697169459130
N         4.59586110462800    8.06781956462657    3.73506740663014
N         6.48485583139447    8.19775086509629    2.27130950110755
N         6.68985123457365    6.05197300215604    3.31574353384620
N         7.41545849714423    3.79815117248593    3.69102004971665
N         4.32189537210004    6.67565603100256    6.40185123477832
S         5.14256947505977   10.40748753161280    2.78091607983059
Pd        5.47954100605604    6.32402048903200    4.84474018392191

