53
CSD_code = DOFQAR | q = 0 | S = 0 | Stoichiometry = C24H24N4Pt | MND = 6
Pt        2.63368181712281    1.50923213360489    3.21885218497916
N         0.97140255299504    2.25042635394293    4.47440389483888
N         0.16385437643943    3.22055386385648    4.06301657260816
N         4.12308536528830    2.03289723266613    4.76640301977561
N         5.10706134395832    2.89167228686042    4.52706973707068
C         4.11668386218348    0.75109443847975    1.97914838257045
H         4.33575017091295    1.42330974325958    1.14581048887061
H         3.83048207787509   -0.21320762481606    1.55760247452748
H         5.02626199563616    0.57842621204855    2.56254584747703
C         1.31662437107624    0.94423753257012    1.71590215599618
H         0.29977948369766    0.90300203183830    2.11799906574821
H         1.54213707121653   -0.05525882255808    1.34213130123994
H         1.34928503811569    1.62978031946240    0.86544335544642
C         2.81734921454198    3.56698267840759    2.73366416449877
C         0.59267267308150    1.91959178107189    5.69885662934336
H         1.08687937367304    1.13288694840798    6.23398318584193
C        -0.48871655878886    2.70693559937477    6.09183378708517
H        -1.01546408100176    2.67812516188264    7.02286390992445
C        -0.73014739700367    3.53117234693794    5.01329358155809
H        -1.46873636218394    4.29395791352511    4.86942223523154
C         0.30277326118148    3.83030820853188    2.75995096871152
H        -0.44413856006493    4.62441076351759    2.68932339572040
H         0.09145473855349    3.08342432228720    1.99150068127681
C         1.69573984821428    4.39968947144089    2.59384542741866
C         1.80193316842964    5.76950183431439    2.39359779818163
H         0.90703736655589    6.36517166896126    2.26890057016942
C         3.04020042019733    6.37914528740988    2.35601678565373
H         3.12763163652740    7.44025700338951    2.17645756092143
C         4.15909519191821    5.61251389618927    2.61428579602906
H         5.13212395058032    6.08354925027216    2.66471762248085
C         4.04490268842499    4.24325041358140    2.81343179683937
C         5.29471393586183    3.49625272040201    3.22777101248326
H         5.54225384626464    2.71662362391701    2.50393316381944
H         6.14114332098382    4.18250807746349    3.30520844128924
C         5.83604006109557    3.10110164827125    5.63316006135170
H         6.67625284079484    3.76596112727657    5.64093173237726
C         5.29566222002321    2.32481433743309    6.63623393961776
H         5.62900417181951    2.24144613113692    7.64960326465942
C         4.22006057290365    1.67138580367724    6.03623173906194
H         3.54474904154349    0.95339626049693    6.45821468188266
C         2.42156038124243   -0.35550105547219    3.97770439870911
C         2.24899828675576   -1.38459303910618    4.59175698187903
C         2.05559176115650   -2.59462488972320    5.30487056958234
C         2.83357229302672   -3.71844213446819    5.02085372414376
H         3.58343975603906   -3.65686134840469    4.24476406385125
C         2.64334615715769   -4.89220510427930    5.72300645923573
H         3.24905886853698   -5.75863551097203    5.49564068941563
C         1.68011657625679   -4.96511084179678    6.71700518098305
H         1.53417896062792   -5.88514165532122    7.26476785833007
C         0.90341905887670   -3.85424278162568    7.00492683732646
H         0.15000838789067   -3.90884986452415    7.77894878008255
C         1.08653398810927   -2.67680262936843    6.30667578049241
H         0.47721541367203   -1.81031912572403    6.52691626138714

