71
CSD_code = DOFTUP | q = 0 | S = 0 | Stoichiometry = C34H24Cl2O8P2Pt | MND = 4
Pt        3.32859985473139    9.40085312801952    7.58062375401199
Cl        2.50043926951523   11.43530443973162    8.21264830013945
Cl        5.50418094255858   10.09862278081746    7.64231323991958
P         1.20696729776404    8.64185587144286    7.45255899914639
P         4.02686297576788    7.36140237622529    6.90930116213365
O        -2.00525514614738    6.97195775946163   13.13717335685776
H        -2.51159046376187    6.99846807067152   13.96409770053324
O        -2.47057730321189    9.15288357464326   13.12465760241968
O        -3.47232084827852   11.73161172920236    3.69217762444024
H        -3.92541911737700   12.24625644913272    3.00596882635426
O        -1.66685481654729   12.27324473649347    2.50092399799826
O         7.06159473384201    8.53495951443937    1.03528384762555
H         7.60548399253408    8.49350103650407    0.23314698716611
O         7.99010374913315    6.54664113424265    1.43172820960948
O         8.36799321232061    4.44428302296782   11.11354742105991
H         8.80219492213928    3.88461664331331   11.77614935703373
O         6.64674310635366    3.07968271446800   11.49944063140631
C         1.27990540798383    6.98362098575235    6.68330228984134
C         2.53377537611494    6.41757321743042    6.43416594129757
C         2.61854436424239    5.17142037301756    5.82267812676738
H         3.58897185803329    4.73897743455618    5.62477293903124
C         1.46644578964424    4.49177955297130    5.46929572324002
H         1.53706035496106    3.52410177763346    4.99617388228033
C         0.22217438139374    5.05241492335285    5.71879983977408
H        -0.67474037074675    4.52022779848044    5.44019199536842
C         0.12777038549054    6.29483479096347    6.32007653181138
H        -0.83992930458205    6.73714761279875    6.51012845517842
C         0.22721657761765    8.43092994200396    8.95645891987817
C         0.05893720939859    7.19412389215860    9.57395526818803
H         0.47482913320356    6.30399257834158    9.12250876395512
C        -0.64311190370897    7.10679670020071   10.76019044765559
H        -0.78584748866592    6.15290343886301   11.24338948141241
C        -1.17158266577464    8.25711120222890   11.34126520743000
C        -0.97569969361126    9.49955734907670   10.73716595917042
H        -1.37873625153651   10.37834715061165   11.21725254827805
C        -0.27422738004991    9.58897199331593    9.55397925180598
H        -0.08916027625943   10.54645619752965    9.08586404643287
C        -1.94132957998959    8.20278171605653   12.60660553077905
C         0.12619312692399    9.55824974337775    6.32032119357156
C        -1.26164512509680    9.56964536602659    6.42248007455050
H        -1.75168903724960    9.04644753934871    7.23190987276282
C        -2.01212174962730   10.27228812956534    5.49947988537683
H        -3.08825033816098   10.29439939404737    5.57245220402897
C        -1.37997473213315   10.96192066253275    4.46784418458642
C         0.01091890242029   10.95608615546051    4.37092899122325
H         0.47740138667767   11.51157262724467    3.57160175054099
C         0.75825705425585   10.25799402265076    5.29541660113830
H         1.84363499854965   10.26669302850677    5.25989994834240
C        -2.15296681541925   11.72018955461727    3.45403816872016
C         5.03123753353376    7.33412728335418    5.39939796030678
C         4.89200916352779    8.42204079399202    4.54190963721798
H         4.24100560445682    9.23948592546356    4.83697333038101
C         5.60350970550043    8.47488356371562    3.36078097314060
H         5.51019372714933    9.31903591080450    2.69611987970644
C         6.46150827197646    7.42816482340229    3.03033991185879
C         6.60638879114509    6.34247545442254    3.89213908404195
H         7.28757705944387    5.55162292297386    3.61572033338848
C         5.89628414272814    6.29274252291266    5.07467273046533
H         6.02561028471682    5.46024851968683    5.75233445013561
C         7.25085068322336    7.43486530324058    1.77408549243730
C         4.91903085846348    6.29485180967147    8.06469982247910
C         6.23756635380590    6.65105754762213    8.35339716616924
H         6.66977506150334    7.51056879050670    7.85826460912781
C         6.96259951607572    5.92583196698099    9.27593653477327
H         7.98229757709398    6.19190304727865    9.50523824808250
C         6.37062513269392    4.84184294490184    9.92309401467872
C         5.04593909446833    4.50405910100385    9.65188590723252
H         4.60821204144369    3.66867853983085   10.17753456002254
C         4.31758523757426    5.23067487903038    8.73205925788643
H         3.28777789208639    4.97390373953767    8.52646674160252
C         7.11044631177973    4.02813277716501   10.91691431258926

