121
CSD_code = DOFWOK | q = 0 | S = 0 | Stoichiometry = C48H68O4Ti | MND = 4
Ti       18.09025538001756    2.29887212885249    9.58298176501396
O        18.17286886608679    1.35456583316416    8.11911418196154
C        18.71085454678744    0.17977280318638    7.77244092299564
C        20.06468099401207    0.09062767354149    7.39750096435238
C        20.58117739267627   -1.14287181621407    7.02953391080973
C        19.78551901958692   -2.27206214051684    6.99942011288856
C        18.44764899226008   -2.17879387248782    7.34282818433296
C        17.89664147614535   -0.97163439417344    7.73675194939145
C        20.92221467200801    1.33671840430281    7.36994693784540
C        21.97833854707442    1.30650114697172    8.47873092742707
C        21.58265220080925    1.51522764266342    6.00026231824649
C        16.43013987898522   -0.81373721844840    8.06374019132304
C        15.68640675205577   -0.39543986282840    6.78956326876308
C        15.79334964893136   -2.06629861111466    8.65877745928393
O        16.66145270686985    3.24232031235466    9.46765788724627
C        16.03433770053807    4.38975713057702    9.21439765681477
C        15.28301188560519    4.52336547915462    8.03081925496211
C        14.62870003718842    5.71744092006760    7.77766272412492
C        14.68157102505239    6.76370618417151    8.68044616344104
C        15.40575539498259    6.62494888931238    9.85039396716470
C        16.09740021941439    5.45673567056237   10.13257332256173
C        15.22273421453501    3.35964790745492    7.06765534354430
C        13.78632436869571    3.04109720418873    6.65046510236738
C        16.09747146943803    3.63309597477823    5.84022723982971
C        16.89011300155070    5.30080999839253   11.41128388722790
C        17.83435966008091    6.47963282954819   11.65460899072636
C        15.93396724088610    5.14301119093621   12.59828023491085
H        21.62195479050835   -1.22257440596193    6.75271368140489
H        20.20327579776169   -3.22252771585972    6.70233134696929
H        17.82871186080109   -3.06164672772325    7.30291692372385
H        14.06354887316574    5.83312519448721    6.86497822038792
H        14.15789960252400    7.68509638604822    8.47420377415037
H        15.43665364919097    7.44394647523795   10.55324368421858
H        20.26150408072990    2.19706135079124    7.55355738087771
H        16.34990756815438    0.00315045814333    8.80202821614811
H        15.63847187013133    2.48377959092912    7.58616336119518
H        17.49818645022735    4.38052012561181   11.31797579549298
H        22.59983994939411    2.19937253948231    8.42939103744111
H        21.49690992716389    1.28098861391771    9.45594420354088
H        22.61810377093876    0.43163457180320    8.37854227915041
H        20.83020547708414    1.52856305172885    5.21484034074411
H        22.13752723171812    2.45089732673096    5.96460714877659
H        22.27827447359160    0.70527132172121    5.79498035883649
H        16.13555920390671    0.50249716861620    6.37087046866534
H        15.74724661064470   -1.18894334636686    6.04627984308136
H        14.63772217051138   -0.20058166128498    7.00593412743378
H        15.67968395837336   -2.84123684490125    7.90376791567945
H        16.39539951951792   -2.45228844629165    9.47677528311817
H        14.80527769550727   -1.82766616417074    9.04620825404002
H        13.36740071477799    3.84315518571378    6.04769237648630
H        13.76229400207777    2.12760788830950    6.05984611969533
H        13.15686578554047    2.90433467086729    7.52705325030855
H        15.80241102791309    4.56301338284806    5.35732067178676
H        17.14369602751594    3.70383819095713    6.13582653979501
H        15.99887551997662    2.82390895226862    5.11858700444961
H        18.47696722742261    6.64549218083022   10.79419188567176
H        17.27403099576366    7.39052572474054   11.85261197554964
H        18.46762500174593    6.27842503927939   12.51562273200818
H        15.23855406278370    4.32694283005786   12.42174111828398
H        16.48854714835294    4.93773691120170   13.51183457155426
H        15.35926300766665    6.05624247559204   12.74073285499474
O        18.00665723316794    1.35678381851304   11.04846719295046
C        17.46871763259828    0.18149009256903   11.39352570563252
C        16.11477994587373    0.09179711258818   11.76790413380966
C        15.59839919476692   -1.14204005507579   12.13488155476231
C        16.39420718172716   -2.27115680521116   12.16413736633216
C        17.73207240371683   -2.17749085403463   11.82080162007995
C        18.28302366920858   -0.96988033336763   11.42819304865825
C        19.74953866411787   -0.81140979051632   11.10157788325165
C        20.49301065148268   -0.39451323009631   12.37636899536469
H        20.04318206720422    0.50245082968582   12.79641999387830
H        20.43275627261306   -1.18920044383143   13.11843491937333
H        21.54155769004279   -0.19856345923045   12.16031057067251
C        20.38658495102071   -2.06315009146671   10.50508177744333
H        20.50095851891944   -2.83872743498534   11.25932939159014
H        19.78429120055954   -2.44867570426651    9.68704744321536
H        21.37435029082566   -1.82375453165472   10.11734239280143
H        19.82969954436837    0.00643515080193   10.36429074675817
H        18.35106649964091   -3.06035309237169   11.85976747573337
H        15.97652218918803   -3.22191905990657   12.46039015491893
H        14.55761521893448   -1.22208786883804   12.41157894178195
C        15.25696540954831    1.33768975630784   11.79523483482456
C        14.20243359775410    1.30756745119951   10.68491752277507
H        13.57960359474658    2.19949172482796   10.73457818705477
H        14.68536906972961    1.28404134379390    9.70837459450438
H        13.56377684670256    0.43164814366590   10.78300046163854
C        14.59464399116619    1.51554274317482   13.16407479489101
H        15.34593323077248    1.52767882267301   13.95062160860464
H        14.04048656276050    2.45164327496144   13.19965420188673
H        13.89805121546338    0.70599558393900   13.36767239587151
H        15.91773719456974    2.19824187521423   11.61285444761694
O        19.51981545885982    3.24146118452995    9.69702121971189
C        20.14665078911734    4.38907616856024    9.95026762708613
C        20.89847582543480    4.52259043325827   11.13355268724952
C        21.55250565838701    5.71679904366523   11.38677879890695
C        21.49897799334990    6.76327404585495   10.48427243657720
C        20.77440385408097    6.62458212468620    9.31456669882274
C        20.08296385864804    5.45624353830430    9.03235302489666
C        19.28977444408014    5.30054648207465    7.75389665994926
C        18.34597696682230    6.47978690906732    7.51080699206817
H        17.70410574556315    6.64635126594514    8.37163494259322
H        18.90666055360136    7.39028890205864    7.31201551808406
H        17.71195080168166    6.27861928687624    6.65034667583906
C        20.24547801100653    5.14233745783407    6.56659384267332
H        20.94045231384575    4.32582680792011    6.74279028349429
H        19.69050278415861    4.93754256859456    5.65316784268996
H        20.82067347426916    6.05525501939884    6.42409922003709
H        18.68136930490100    4.38049060286336    7.84739715459000
H        20.74301673787338    7.44374510278127    8.61193668635273
H        22.02242856333584    7.68477979891353   10.69055856344281
H        22.11796620755170    5.83243657741251   12.29926800664033
C        20.95919086116855    3.35869722933544   12.09647225046335
C        22.39529079713853    3.04222139214171   12.51624291391444
H        22.81158657993690    3.84425534249732   13.12086151621595
H        22.41966980872067    2.12808995883865   13.10585823688484
H        23.02680626493465    2.90755222365345   11.64081258552358
C        20.08178088538055    3.63056497140254   13.32236340901028
H        20.37420516513651    4.56114969550910   13.80559989028068
H        19.03592755784291    3.69917660566831   13.02487052034874
H        20.18071438959719    2.82170123664114   14.04431744287503
H        20.54574426505650    2.48230335090973   11.57706237888731

