75
CSD_code = DOFWIG | q = 0 | S = 0 | Stoichiometry = C25H43ClNO2P2Re | MND = 6
Re        2.40580553227196    5.13785595751467    3.29322803893017
Cl        3.80040060986857    3.60948321018255    4.45126143893361
P         4.16538973069832    6.79354124709074    3.74073145268316
P         1.31543490112444    3.18266901399181    2.18273613551479
O         0.72467580377708    7.11818895813784    1.63809111429195
O         0.58017040326737    5.47780596660496    5.75792800040767
N         3.78980105050073    4.73597476482138    1.64601618666404
C         5.53278653447527    5.80193069606578    2.98662694697006
H         6.43543655150529    6.38752766918258    2.79825982497594
H         5.75322413843424    5.03419770361523    3.74001836016189
C         5.07347240409100    5.09621463967855    1.74790011758004
C         5.99161773288746    4.80225872011076    0.74566701827123
H         7.02285199769632    5.09887909393327    0.86138844583719
C         5.57062626720103    4.13056960604642   -0.38687487227092
H         6.26439741638239    3.89691445225030   -1.17996048841479
C         4.24092088869894    3.75949393323389   -0.47783744269382
H         3.87283727998585    3.23104217750831   -1.34396049502100
C         3.37456946343572    4.06912914690235    0.56323773310206
C         1.93414105179951    3.66212879787292    0.49226223206723
H         1.78700724492204    2.87793288877574   -0.25295061552394
H         1.33474363022205    4.53658430003263    0.21341957417086
C         4.16769768699278    8.38082869641188    2.68909681684054
C         5.41766371550962    9.24943833939422    2.82088533015764
H         6.32398541540494    8.68844184568445    2.59897765724653
H         5.50816119035545    9.69368691645461    3.80738219446724
H         5.35172134660266   10.06509150735600    2.10076038046047
C         2.91859091894807    9.19230858127708    3.04998452965086
H         3.10004337634426    9.86062239325712    3.88525853739345
H         2.09647446548843    8.52774328270823    3.31249770114778
H         2.60640013591627    9.79834379982297    2.20188712421752
C         4.06607889388258    7.94813080157444    1.22269768129508
H         3.90231644782738    8.82360647699286    0.59536054042048
H         3.22850563016757    7.27144962347729    1.07165257921008
H         4.97981604494902    7.46388375003668    0.88207805889363
C         4.80327348674115    7.19468417981678    5.48134812040420
C         6.31387973944972    7.42231236043193    5.54864263342423
H         6.57654062880887    7.70256071756396    6.56839788243356
H         6.65163974745757    8.21504316025460    4.88926282955067
H         6.85836281635854    6.51161631902891    5.30883576539169
C         4.03702059673527    8.40785248161278    6.01059250826996
H         4.18687160753032    8.49123325883412    7.08624470687765
H         2.97086753432900    8.28212188858118    5.82553210208030
H         4.37374616027541    9.33619880004685    5.55904687072195
C         4.45486950245522    6.01476631552472    6.38921643795516
H         4.98543657894429    5.11100987649865    6.10155136110532
H         3.38544504317259    5.80865837600486    6.35419816765320
H         4.72665244018800    6.25025113215162    7.41746403767787
C         1.94850978754479    1.39299749168385    2.36189868255041
C         1.25743111782567    0.37223654085909    1.45771946903608
H         1.29109326243225    0.66878607180281    0.41070199471680
H         0.22695355153593    0.19496870679747    1.75073687170841
H         1.78720954501363   -0.57651653708517    1.54666736649294
C         1.79409488813029    0.97743468628261    3.82669850743568
H         0.75398278024101    0.87224472692304    4.11771346771271
H         2.26098944391888    1.71325255554114    4.47686106139379
H         2.29043276319194    0.02161411194847    3.99120332011896
C         3.43981093802229    1.37900012680329    2.01082314472268
H         3.85990990190864    0.40807937233625    2.27240070640276
H         3.98275817136723    2.12706597635663    2.58378983317756
H         3.61011250965423    1.53903454662596    0.94746693844650
C        -0.57320736413957    3.15293080688073    1.94106559260081
C        -1.19274888988589    2.39451381535875    3.11530969411129
H        -0.75602463514192    2.74599688178946    4.04977313769700
H        -1.05141285909343    1.32064671560366    3.03258657423071
H        -2.26478476159202    2.58348833002936    3.15177983033026
C        -1.07499608525460    4.59528871135854    2.02696906318591
H        -2.16368222583677    4.60155674352546    2.00645184249384
H        -0.72752810890327    5.19240625414928    1.18889607321125
H        -0.74653899368361    5.06436814115074    2.95379221130255
C        -1.04950257230391    2.58391258123895    0.60422658401501
H        -0.78403094504540    1.54312141114056    0.46381096127974
H        -0.65926404130409    3.16125405457879   -0.23054794223528
H        -2.13650561385971    2.65250972873036    0.57006615887740
C         1.34622764064615    6.37107366420897    2.27613423728976
C         1.25853901052473    5.36842595902925    4.82816335611686

