94
CSD_code = DOFXOL | q = 0 | S = 0 | Stoichiometry = C49H39CdN5 | MND = 5
Cd        2.69038701684074    2.66319858914594    2.98461776718718
N         2.21425047688325    2.45284675092686    0.95492482558932
N         0.68750964468753    3.12582054882832    3.37066544952771
N         3.19183318640463    3.43812470443616    4.86425543323735
N         4.71920428651185    2.69458029266683    2.46524808864327
N         2.62407807054434    0.30827364257886    3.52434911333875
C         3.09180177960776    2.20076780491239   -0.04774786095606
C         2.35728367052968    1.92822885780303   -1.25881553703187
C         0.96009555016721    2.37240158599349    0.44563920925759
C         1.04135316580902    2.04322498600979   -0.95627038602510
C        -0.34289579295122    2.97242794064515    2.50303135374804
C        -1.58390871013610    3.20560461059903    3.19997987930750
C         0.17166280286642    3.43918823500078    4.58450432986862
C        -1.26570550538504    3.50330689123845    4.48312724932999
C         2.31132451935926    3.64097313378054    5.87543004158680
C         3.03862028697769    3.78415117884203    7.11251376375948
C         4.44243425044310    3.45506975780086    5.38791409093179
C         4.35502741456841    3.67043047025641    6.81112778564512
C         5.74934527504711    2.95645780617215    3.30680754532699
C         6.98672648299742    2.90422112439891    2.56776338046314
C         5.23222584359480    2.47373642971321    1.22976927059534
C         6.66721092383992    2.60748064356881    1.28462285883594
C         4.49151755621309    2.20983737169224    0.06589879259543
C        -0.23036797808943    2.61099217136060    1.15107835442880
C         0.91225391770688    3.66779923835495    5.75540389578830
C         5.63651357262378    3.26649136432896    4.67230334645779
C         5.26699689263997    1.94953116448672   -1.16710028443655
C         5.17021454131251    2.80544875602105   -2.26058390466199
C         5.90127666789676    2.56283761360715   -3.40906981539943
C         6.73587724236730    1.46011271987036   -3.48395282272631
C         6.83885124108039    0.60280216129345   -2.40132312033573
C         6.11249193646739    0.84684662680944   -1.25010954431848
C        -1.49253092764777    2.47518374279275    0.38894785590633
C        -1.88186005041868    1.23938364211892   -0.11903816163714
C        -3.06014816452983    1.11233628970477   -0.83197999475244
C        -3.86390958174829    2.21858166942474   -1.05057812501677
C        -3.48390621601174    3.45275096850159   -0.55014594823949
C        -2.30793408303758    3.58073778774097    0.16632719152542
C         0.14423935799599    3.95624753496500    6.98684498404732
C        -0.72882116402238    3.01095026327111    7.51759696910624
C        -1.44461309718386    3.28341185485558    8.66911649788829
C        -1.30207679355695    4.50555520158971    9.30451605043402
C        -0.43638309621274    5.45291069389683    8.78367706031357
C         0.28408857858924    5.18001778455242    7.63534835147898
C         6.89890260141754    3.41856269946166    5.42638474375014
C         7.21180574032343    4.62394354969078    6.04910046218312
C         8.39523549086152    4.76626577192045    6.74980433804383
C         9.28143985139159    3.70611574480962    6.84338815110507
C         8.97910816191325    2.50258168399391    6.22830914050789
C         7.79823248290241    2.36000902054688    5.52290681792654
C         1.25729691855947   -0.21510150138763    3.53662639278957
C         1.22069715014279   -1.72348489071971    3.79345353171346
C         1.92122301921281   -2.04175264902231    5.11263322962273
C         3.34166397178807   -1.48145633035363    5.09030753486980
C         3.30371085036628    0.01846239388677    4.78800601530246
H         3.13388827953077   -0.17449389015472    2.78030807530880
H         2.79035871996893    1.67837456501077   -2.20837737615721
H         0.20520392620594    1.92764199554964   -1.61900456951179
H        -2.56382677101324    3.14517657828215    2.76670277749397
H        -1.93708704270417    3.75299373060059    5.28227341294211
H         2.59938370593971    3.93345982609000    8.08036783519697
H         5.18652400880355    3.70607302654934    7.48870317892848
H         7.96217038803446    3.09788665072170    2.97118171906859
H         7.33421514072200    2.51157450790504    0.44933684084400
H         4.52624600602072    3.67067144780477   -2.19741214733855
H         5.82124087605871    3.23772020609325   -4.24900751670009
H         7.30534938421345    1.27047722586564   -4.38190802608908
H         7.48831154040381   -0.25921712653942   -2.45433975973420
H         6.19039245420640    0.17626693037012   -0.40598989856036
H        -1.25642701178242    0.37506399772094    0.05517167892735
H        -3.35255275686287    0.14667655249407   -1.21881717965212
H        -4.78270446797285    2.11928481955006   -1.60962042888863
H        -4.10612127230606    4.31951472821058   -0.72026383529099
H        -2.00615639600066    4.54426179858502    0.55083595690952
H        -0.83643181696741    2.05491408133416    7.02477987460804
H        -2.11634235380286    2.53944667875157    9.07280572895649
H        -1.86372739322519    4.71878999486815   10.20208832667195
H        -0.32322904241035    6.40890252579448    9.27418730879464
H         0.95482225714182    5.92042128868808    7.22408492615347
H         6.52428008751136    5.45317007911031    5.96664508444846
H         8.62858282823052    5.70894567375437    7.22349173320195
H        10.20496314865194    3.81743337623022    7.39231968377036
H         9.66664698827616    1.67191936310696    6.29870924675844
H         7.56011855359076    1.41901747523789    5.04725768450694
H         0.78781180479699    0.02225193805084    2.57738000527145
H         0.70725785470966    0.30840438730643    4.32569559295818
H         1.72740364731593   -2.24343372966575    2.97555749226213
H         0.18640334434257   -2.06914268928743    3.82008443252832
H         1.94268089543066   -3.12053638373907    5.27875719949215
H         1.36659240308083   -1.58582945009450    5.93566751224601
H         3.92429379956010   -1.99305783820585    4.31902578693440
H         3.83201295711690   -1.65261188018161    6.04951435309890
H         2.76560577866194    0.54287686792412    5.58492896989366
H         4.31819431598499    0.42478257092303    4.73602268131291

