93
CSD_code = DOFXON | q = 1 | S = 0 | Stoichiometry = C34H49F3N2O2P2Re(1+) | MND = 6
Re       -1.23867699222601   -2.61269712838255   22.46401038859365
P         0.83597909567540   -2.52910468400265   21.18704543641518
P        -3.50581203326107   -1.81307942249798   23.13835482264890
N        -1.32600919001129   -0.62947920347520   21.59205664769425
N         0.13802246794828   -1.47909073457426   23.86081338986054
C        -3.73908899084236   -0.72599355726073   21.64355618109199
H        -3.91565766301275   -1.41336320206679   20.81059892214458
H        -4.59331327088074   -0.05259357313010   21.72913248788787
C        -2.47484811527712    0.01986223981257   21.37071757364470
C        -2.48542600195972    1.32909740980387   20.90499926373661
H        -3.42449852617387    1.82676891830161   20.72355653517659
C        -1.28479076372967    1.98287434825441   20.68205700481742
H        -1.27012240286290    2.99885236775493   20.32146697991956
C        -0.10121076434803    1.31290288067010   20.94394110034103
H         0.85405861868957    1.79415164536931   20.80473508288802
C        -0.16387271855802    0.00006373357157   21.38976200431258
C         1.07550433249918   -0.75382555024888   21.78575087053215
H         1.97773242769037   -0.26621009244627   21.41180001801578
C        -3.70059231267804   -0.60709183308913   24.59043155288010
C        -5.01955428293655    0.16282630459342   24.68137671638421
H        -4.86956183814108    1.02457662643383   25.33082379956896
H        -5.81780252319411   -0.42724309712485   25.11375800520043
H        -5.34433954091428    0.53795193488300   23.71315391364901
C        -3.47191937095184   -1.43768928041877   25.85536064001360
H        -2.62057603884934   -2.10603718418719   25.72812678923959
H        -4.34256796030433   -2.04754189266650   26.08177730375190
H        -3.29116333833592   -0.79105675993223   26.71262559379127
C        -2.59185982821383    0.44090676338067   24.43178012952353
H        -2.43030663542622    0.95408391952110   25.37948031872128
H        -2.86959807596106    1.19198273131229   23.69328931993780
H        -1.65200621970707   -0.00804428856318   24.12281948385531
C        -4.94352636547653   -3.05465811776556   23.07920425340098
C        -6.22862241241280   -2.59857523786088   23.76470204588007
H        -6.99422864060898   -3.35253069670298   23.58869628755089
H        -6.59393046144634   -1.66079936187682   23.35518170223106
H        -6.10725524799743   -2.51063398897735   24.83956988634640
C        -5.28767332973338   -3.38005055454390   21.62526841506235
H        -4.40112209845158   -3.61068124075899   21.04357833174375
H        -5.83686746841220   -2.56796716854540   21.15343340121100
H        -5.92492847643561   -4.26164668062831   21.60694784203006
C        -4.41645145014551   -4.31682903572394   23.76591429271638
H        -4.07114652149910   -4.10472896167066   24.77507141144082
H        -3.58451376421392   -4.73528040412137   23.20042129071785
H        -5.20499999830346   -5.06315536261559   23.82599722946625
C         2.31379000960993   -3.57735806209922   21.74258123347818
C         3.64573270749870   -3.22318957013536   21.08745023242366
H         3.89397408361652   -2.17074056649364   21.22059756263165
H         3.65636165348928   -3.45714597887187   20.02693833885716
H         4.43438970711752   -3.81050130622682   21.55563998979088
C         1.92307861762205   -5.03571471332122   21.46785382011935
H         2.05536522210645   -5.31803958985596   20.43012078794361
H         0.88198641355651   -5.20631464628043   21.75016549186637
H         2.54569281927802   -5.69644444720147   22.06711436629608
C         2.45323891331425   -3.44584926357576   23.26148515751551
H         3.20892265009780   -4.14822998237279   23.60906254039478
H         1.51589664522842   -3.70082847862010   23.75314542425755
H         2.76681067754993   -2.45195077747949   23.56897608595073
C         0.82238720695348   -2.31414107102918   19.29593787350960
C         1.90299043043371   -1.35022515957795   18.80194892704196
H         2.89551269241602   -1.61713442685383   19.14992378746297
H         1.68936738272929   -0.32465579702090   19.09805128502959
H         1.91701385723900   -1.37640960984603   17.71342621950998
C         0.99459581301706   -3.69210736985597   18.65411356303012
H         0.77700775629344   -3.62588719682012   17.58947784155071
H         0.30239257775803   -4.40900321165046   19.09306985939864
H         2.01089076782773   -4.06059529591540   18.75174652995106
C        -0.54214455865579   -1.77462961091483   18.84892448500611
H        -0.66636151409491   -0.71960105704099   19.08080218541335
H        -1.35839250353448   -2.34083832198131   19.29403929713562
H        -0.62282235727526   -1.87336914961346   17.76782624335732
C        -2.01695458205872   -3.79083081945712   21.14432953382351
O        -2.29630648547791   -4.56829084942579   20.33916358291476
C        -1.06199666884981   -4.19176262380751   23.56569293002189
O        -0.92597036335422   -5.09122582291579   24.27201220488567
C         1.03354053345244   -0.76210004096713   23.29062953930977
C         1.96350165755436    0.17123498145001   23.95890157241091
C         3.32510150289703    0.19068091611105   23.66032952940012
H         3.74770903820083   -0.53464905270691   22.98103364362919
C         4.16144413460812    1.11907296537090   24.24910220877387
H         5.21632459506587    1.12147062373099   24.02331458237217
C         3.63481283552215    2.05932172217255   25.12370301269960
C         2.27848921157462    2.06534951526268   25.41900327636037
H         1.87546275432125    2.80500885555479   26.09301850229738
C         1.45047270479702    1.12370223997979   24.84068876222111
H         0.39367912375011    1.14640271704908   25.05870531816604
C         4.53842520980777    3.06714999778251   25.78431683900703
F         5.65067255503729    3.29758633516964   25.07801805942489
F         3.93134482156054    4.24890786442120   25.95799690569978
F         4.92863611458717    2.65169505612134   27.00091263080614
C         0.16524761119508   -1.65071674950709   25.29607877776163
H         1.13393454406878   -1.38135865900906   25.72327240895178
H        -0.04806406940786   -2.69727048122092   25.51562617536316
H        -0.60603975862905   -1.05129755814204   25.77848620874081

