32
CSD_code = DOFZEE | q = 0 | S = 0 | Stoichiometry = C7H21ClNiP2 | MND = 4
Ni        3.09488932603320    2.44628957806152    6.27803163354645
P         3.67010487382223    4.12967389912619    5.03900735343755
P         2.94770381688571    0.68210498930190    7.53139162664734
Cl        4.98113209057050    2.74111251775124    7.23275534157598
C         1.35645776264382    2.19138798708502    5.44146456393526
H         0.94393160073982    3.10794349916049    5.01236201743376
H         0.61855235720490    1.79378195476507    6.14431787796686
H         1.48699523246333    1.46187482079369    4.63094541497026
C         2.63392174630257    4.81313291123130    3.67908464345873
H         1.71626295093241    5.23228884628999    4.08581233878288
H         2.37653455930752    4.02095356068761    2.97943710162796
H         3.17945300141727    5.59470067063397    3.15287623048285
C         4.05231311711453    5.67116410988038    5.95132256920492
H         4.41809237423682    6.42957443435510    5.26008377151600
H         4.80628837877549    5.46126885114083    6.70669525912485
H         3.15068083261311    6.03115148147728    6.44407556692672
C         5.23446274368385    3.85096003113079    4.12521229360226
H         5.51414953197993    4.75459339901517    3.58507283302183
H         5.09857550377079    3.03254529278022    3.42015947752458
H         6.01793910377142    3.58214697602516    4.83006108723071
C         3.11331001254114    0.97340665566628    9.33203427529423
H         3.12002928844298    0.02129636343813    9.86136236997093
H         2.27625738908621    1.57727999487010    9.67836165529432
H         4.03866303467981    1.51217017143034    9.52315301471525
C         1.50815982396535   -0.46578790218655    7.52644132074312
H         1.71122809826626   -1.32021069487199    8.16993640160942
H         1.31895600300732   -0.81483361064936    6.51382346749826
H         0.62161228504192    0.04975057854577    7.88899400390143
C         4.30263621045244   -0.51542424683270    7.23169661442094
H         5.25870830442490   -0.01174707263492    7.35490668068860
H         4.23140453662467   -0.89190473824364    6.21259776984251
H         4.22649410920103   -1.34534530922469    7.93302342399927

