52
CSD_code = DOGDOS | q = 1 | S = 0 | Stoichiometry = C18H27CoO5P(1+) | MND = 6
Co        1.48863679868358   12.45913067819681    4.90626917374886
P         1.82312281668866   14.26603119509283    3.71877706110929
O         2.55998064680741   13.24369744654671    6.23236204186835
O        -0.07414103293307   13.09539750571538    5.71989698513729
O         0.39795250867595   11.65326825354814    3.63675406716438
O         3.03484465335967   11.75190807280043    4.15316372341393
O         1.30678967217138   10.62287791888723    6.08869059449155
C         3.29494427412022   14.51857660643873    8.08352524959534
C         2.19785955736323   13.97999120216833    7.20333531321545
C         0.87893689017359   14.30793694275129    7.50481452504812
C        -0.19012016268667   13.83370224931310    6.74241424454856
C        -1.58795214108825   14.20739955079444    7.15637483529207
C        -0.37761907267132   10.27856169404138    1.88000158823408
C         0.73466309549037   10.84243106855227    2.72331662324965
C         2.04555694431575   10.45441696804026    2.44562810939402
C         3.12214460278030   10.92726042896750    3.19113917958764
C         4.50754281967992   10.45028397656640    2.84365509217904
C         0.97650468379807   15.71321141068231    4.39887466402364
C         1.65060708627822   16.65256653960392    5.17249685517877
C         0.96231234600773   17.72638584912627    5.70953355413757
C        -0.39838519676799   17.86326276758377    5.48856207984411
C        -1.07660529202269   16.91904040412312    4.73296518714523
C        -0.39552698625984   15.84258473779327    4.19624102492712
C         1.27443711487026   14.17337355903846    1.98010397000453
C         3.58204488792698   14.71238948711146    3.58059522223559
H         0.42792384484111   10.44742268298581    6.44235785052098
H         1.95007964645435   10.51208129928173    6.79717535900727
H         3.15520953320638   14.17166297035999    9.10483099691139
H         3.26183183074922   15.60554721811822    8.09421700456858
H         4.26250244120571   14.18366390885095    7.72022358210319
H         0.67709843143572   14.94314150643808    8.34984624495330
H        -1.68959957957145   15.28998413777138    7.16615611448162
H        -1.78926125452302   13.84097861419896    8.16062113130932
H        -2.30613746791851   13.77954800598429    6.46318887702679
H        -0.19697804922207   10.48946937235347    0.82865853015671
H        -1.32759194777324   10.70859409400117    2.18376455014653
H        -0.41692882223530    9.19856894936459    2.00283674358438
H         2.22754451730176    9.75826001356921    1.64502313411006
H         4.72180573261550   10.64126202803186    1.79482096934741
H         5.24069404639071   10.95277632623719    3.46802059918420
H         4.57377189477604    9.37707784468547    3.00808807171106
H         2.71035268393850   16.55025790302678    5.35055639205821
H         1.48927439040235   18.45932071560322    6.30115933651684
H        -0.93096657054233   18.70281620154120    5.90791526700508
H        -2.13786870794603   17.02193131373814    4.56511806116184
H        -0.92487617230714   15.09213707295495    3.62814542678907
H         1.42605945962021   15.14305497165085    1.50659505320069
H         0.22380661356263   13.89896544394056    1.92774032982719
H         1.86151010297688   13.41577679633614    1.46308757369971
H         4.07442563905707   13.98357491911167    2.94004170638459
H         4.05286152148111   14.67892409302902    4.55990292031295
H         3.67302472726197   15.70741508335417    3.14581720913363

