85
CSD_code = DOGGIQ | q = 0 | S = 0 | Stoichiometry = C27H49AsN4Si3Zr | MND = 5
Zr        8.53173031424904   12.39193562236232    4.48821716026853
As        7.30093366579232   10.27368724865763    3.51417027059678
N         9.11563434706576   11.37903528115319    6.20454634355308
N        10.13862619595220   13.03849685135659    3.30315105212572
N         7.00263982258733   13.71744782276390    4.92865981289251
N         9.67979337685141   14.08928621112426    5.88180368149128
Si        9.86257405061109    9.85024952183764    6.17120960131352
Si        9.78054025278099   13.94752742845766    1.90410266126037
Si        5.68838019151694   13.32351699397794    5.94883825437918
C         9.12938463894647   12.22926520861738    7.36942136873131
H         9.46513340963496   11.69926962900226    8.27150761408891
H         8.11764662650156   12.62001828436927    7.57163736938202
C        11.25489332781181   13.41730393980050    4.14075388645754
H        12.11793528002603   13.76568521246524    3.55224227887960
H        11.58947354583901   12.54992360694197    4.73816800847138
C         7.58535264376601   15.03782866664242    4.99013696552002
H         6.83284111260470   15.81565453670857    5.19363431039574
H         8.05316731012519   15.28444357611380    4.02171090419480
C        10.08373352285230   13.41201153131043    7.11495261682701
H        10.10521587000363   14.10470368819303    7.97152016227220
H        11.08788540547583   12.99699007038281    6.98110307942916
C        10.82609349285459   14.54872761817869    5.09829322329811
H        11.66125217282370   14.86151162568560    5.74555491735352
H        10.52760451701984   15.40344700859113    4.48736488017458
C         8.66187809114671   15.11866930329525    6.09827910812526
H         9.10661194970949   16.12588532501262    6.13414710379971
H         8.16222674089721   14.93204579499775    7.05195110465453
C        11.35461885096509    9.68501028691983    7.37372257030385
H        11.03514756714724    9.80433030167982    8.40372074077245
H        12.12089738261074   10.42959534141269    7.17877980928751
H        11.81712805827918    8.70809090624082    7.29152316096957
C         8.67431662475392    8.39209016310095    6.57116202791892
H         7.83245176283154    8.38500349894518    5.87723993961622
H         8.27550526571351    8.46348316999299    7.57865150620610
H         9.17924097960884    7.43549779627678    6.48702453160852
C        10.52064423479823    9.63247120354383    4.38120631850661
H         9.86141879972820    8.97855851609401    3.80946361734540
H        11.51182156031549    9.19124257451896    4.35515458839073
H        10.56819678617283   10.60503900191768    3.88211087126468
C         7.91107142006299   13.61457530858872    1.61789971592208
H         7.39408842766890   13.42696082172267    2.57321840318121
H         7.77547245362390   12.75504886946498    0.96598495894443
H         7.43137586083322   14.46110347247567    1.13420075905331
C        10.83485955297380   13.44100698434331    0.37644725057162
H        10.21003465030175   13.07412696973261   -0.43037666011172
H        11.54288159355236   12.65646142906359    0.62417002706590
H        11.40302071012336   14.28225276799574   -0.00706644071599
C        10.00847180251959   15.86902657524740    1.93481594588156
H         9.34743843160105   16.38449760185654    2.62747995989853
H         9.81977640742222   16.28319295735234    0.94876948587754
H        11.03082300320646   16.12945167628012    2.19695965866122
C         3.99274572381000   13.64870629919916    5.11104105272274
H         3.80278313940795   14.71220116404004    5.00015737101554
H         3.18550173600418   13.23262620824399    5.70432067690223
H         3.93782493190593   13.19900007180739    4.12579463893031
C         5.56991473274457   14.33698123252461    7.59145188578260
H         5.66169599058163   15.40248846345468    7.40022915512643
H         6.32692956203730   14.06524775182358    8.32290141248619
H         4.60318322010757   14.18100600508763    8.05897185026262
C         5.81160727028762   11.48347670894765    6.47611896593839
H         6.80407924899415   11.06040927349830    6.29106656933650
H         5.08248905567921   10.89325225002125    5.93189539111620
H         5.58795277910115   11.36650227853397    7.53224932704834
C         5.38208228891784   10.63222841105270    3.15949693239827
C         4.92148595701338   11.59151397320277    2.25903309471468
H         5.62990572955987   12.21811508018578    1.73239458991917
C         3.57036647446030   11.75218505323033    2.00751686547506
H         3.24042632069441   12.50162618565608    1.30063992057229
C         2.63718049094861   10.96323018460494    2.65988862844736
H         1.58252232131861   11.09473588268078    2.46688039507905
C         3.07110477515670    9.99605214986169    3.55085935072560
H         2.35181921398901    9.36337402688952    4.05204339611609
C         4.42395712014650    9.82633633781125    3.78219956376937
H         4.76841043592126    9.04248529477275    4.45316969855865
C         7.80642534069637   10.15880684274222    1.61692031947051
C         9.10097762870568   10.47267359912392    1.19421609947309
H         9.79324208145698   10.92875852844959    1.89720447176473
C         9.50678112700355   10.24569286467042   -0.10847637752046
H        10.51744660107186   10.48603571172001   -0.40682738964131
C         8.62446556134037    9.71948243800257   -1.03709989861254
H         8.93866159765310    9.55509741143217   -2.05755323878660
C         7.33529855425198    9.40094492426221   -0.64048903673015
H         6.63932440712248    8.98266120734614   -1.35445094103729
C         6.94198750414012    9.59645430674041    0.66897758102347
H         5.93983701554808    9.31602607562758    0.97701719180710

