69
CSD_code = DOGJUE | q = 1 | S = 0 | Stoichiometry = C26H36CoO4P2(1+) | MND = 6
Co        4.97535931781147    0.00037191805933   -0.00056135084449
P         4.39523052030033    2.19543842860001    0.11521577759318
O         6.35245487438476    0.32196046156505   -1.25021094974677
O         6.13602444875942    0.29816844744509    1.45746116975621
C         8.45600029712867    0.80009844860530   -2.21063165860428
C         7.56319733561150    0.61144631670782   -1.01115582647196
C         8.11661531689414    0.76946869021039    0.25808385174497
C         7.36630585527994    0.59568607876710    1.42091159602307
C         8.05456554340398    0.77802026957771    2.74849183267927
C         2.76633280575417    2.54465899162645   -0.60132518862635
C         2.64932480500417    2.62629915525960   -1.98667934669146
C         1.41429096492022    2.84097655615941   -2.56934458862034
C         0.28329017201310    2.95788025454739   -1.77666165142487
C         0.39128775278999    2.85417435212246   -0.39965496819749
C         1.62572754414427    2.64301845518934    0.18867251783283
C         4.31175192134720    2.84280469137859    1.81975659412998
C         5.48972129471621    3.41410107365970   -0.70411224003400
H         8.86357849924786    1.80850728683555   -2.21517619047356
H         7.89117758901921    0.63542839247183   -3.12403588326022
H         9.28963411575102    0.10324149248294   -2.16481777893822
H         9.16090587278043    1.01608041634289    0.34445230379318
H         8.85792298717029    0.05109176000357    2.84391887026174
H         7.34277822222210    0.63783721360341    3.55680242875738
H         8.49036721868737    1.77259854011804    2.81143718246190
H         3.52775198480915    2.51234029117307   -2.60478787792268
H         1.33188345197496    2.91560655414476   -3.64331708230936
H        -0.68075020352534    3.12601952428329   -2.23164944526942
H        -0.48960707930810    2.94059741703496    0.21843643275000
H         1.70006378432343    2.55960197119562    1.26248263378772
H         3.74934630097424    2.15598695909431    2.44806123318133
H         5.32488295509240    2.91037976139253    2.21190324831604
H         3.84866341869341    3.82903564747802    1.82284977744675
H         6.45079644336275    3.42321511495022   -0.19174140190121
H         5.03688563720553    4.40375673140075   -0.65491874420013
H         5.65159499266777    3.13566313715822   -1.74268551660674
P         5.55479631482483   -2.19492663359645   -0.11535382670110
C         7.18308278980155   -2.54468113500191    0.60228193496663
C         7.29930743625466   -2.62577927815077    1.98773297157286
C         8.53399167764160   -2.84042933195964    2.57115928738139
C         9.66539329406863   -2.95789785340333    1.77913147788059
C         9.55816884089042   -2.85481928478081    0.40201581628576
C         8.32409125205603   -2.64363629011376   -0.18705974218723
H         8.25037193937652   -2.56055404348425   -1.26093522805870
H        10.43939822091711   -2.94149932374826   -0.21555543758915
H        10.62915470649865   -3.12596986809392    2.23472088903881
H         8.61576245098273   -2.91485613181753    3.64518701738866
H         6.42055849924528   -2.51157410210571    2.60532457236250
C         5.63867422318026   -2.84356575486788   -1.81938868292841
H         6.20281832482963   -2.15819274438889   -2.44771489835469
H         4.62576691171410   -2.90967040299344   -2.21237964001381
H         6.10006781436990   -3.83059966806740   -1.82136639815592
C         4.45897961141443   -3.41224875791412    0.70418425741968
H         3.49817349866648   -3.42099106323654    0.19129954002808
H         4.91110363469548   -4.40226998702254    0.65591271170730
H         4.29673810929859   -3.13297227657111    1.74247266586506
O         3.59809124803299   -0.32118276725728    1.24897362732098
C         2.38756131803224   -0.61146970251762    1.00968656317489
C         1.49473576129140   -0.80085910646855    2.20902375547650
H         1.08739219161105   -1.80936994090713    2.21313286095674
H         2.05945188028552   -0.63640030757241    3.12253016650716
H         0.66094449789994   -0.10418878935688    2.16342693014603
C         1.83446130162196   -0.76995912559610   -0.25961392722557
C         2.58482448122564   -0.59568706452081   -1.42235421800221
O         3.81490975646309   -0.29741949003027   -1.45868103385480
C         1.89690102204522   -0.77826221067848   -2.75007312808960
H         1.09376917673793   -0.05113420359654   -2.84596530377338
H         2.60896405186511   -0.63845325887262   -3.55821273245492
H         1.46087864032817   -1.77274722504085   -2.81286739726957
H         0.79035816044847   -1.01729367689655   -0.34614521116246

