52
CSD_code = DOGKIV | q = 0 | S = 0 | Stoichiometry = C23H20N4O4Pd | MND = 4
Pd       -0.29852525518218    4.98474421678616    3.38428016822805
O        -3.86025242817913    4.47788082412410    5.34221551544260
O         1.21564662327481    8.77307616190178    3.03316262609551
O        -1.99782542396109   -1.56165647787058    4.64045280374580
O         5.11973133679937    5.74610979536046   -0.86693276068274
N        -1.21349100917966    6.45356931043626    4.10929605808754
N        -1.85319551574754    3.98295241573885    4.31350696067847
N         0.92503569228967    6.50760690406811    2.70019507706460
C        -2.80288118249525    4.79771036857543    4.81786022603136
C        -2.37266530391876    6.24970269535705    4.73296301525492
C        -3.06901001602464    7.31563550161219    5.29009592003175
H        -4.00754660779537    7.12209015712527    5.78501001336315
C        -2.52538568032766    8.58914440562749    5.19331426057531
H        -3.04425495594301    9.43358547873800    5.62167845097808
C        -1.31196699231782    8.77338107805027    4.54483332449690
H        -0.84935597612044    9.74249166601028    4.44452725010055
C        -0.67250803056438    7.66608023824629    4.00046200916477
C         0.61847671994241    7.72046388829981    3.20521525710646
C        -1.97526080553336    2.59247831561861    4.40065072903221
C        -0.83669713188490    1.85855897260537    4.75068000331924
H         0.07802054181664    2.39891058681389    4.98605387379847
C        -0.87839121065202    0.48537377011267    4.81890212818052
H        -0.00644056308786   -0.08914237615880    5.09112452763903
C        -2.06688571646991   -0.19880879426194    4.55457920862665
C        -3.20691045027660    0.52626604962113    4.23010988464266
H        -4.14342571233624    0.02878001934573    4.03309946733646
C        -3.16102400540275    1.90737587668469    4.15363105579338
H        -4.05295375320561    2.46054888740390    3.90750714053761
C         1.99109193790073    6.34820874045123    1.80908660121716
C         3.24697144415662    6.92875644147457    1.99806698252905
H         3.41743388665503    7.55905232024527    2.85561873928618
C         4.25466966787799    6.70682981377026    1.08618702784710
H         5.22839738789673    7.15093301983059    1.21944643780612
C         4.04423764078134    5.90656824380487   -0.03767901591072
C         2.79272616445078    5.33360506338776   -0.23678540523438
H         2.58872891190152    4.72432739884410   -1.10432736537068
C         1.78025533407279    5.56189868911105    0.67727342350935
H         0.79028800458906    5.13909209064567    0.51483311930857
C        -3.17469869331342   -2.30342782106805    4.43614893580396
H        -3.56478552817064   -2.16975260331153    3.42144458532615
H        -3.95010545418585   -2.03557275144476    5.16085790052430
H        -2.89465966184320   -3.34628433014741    4.57829423852501
C         4.94291115875215    5.03324483120755   -2.06424518817252
H         4.68753183639906    3.98359060487082   -1.87821223221082
H         4.17076980348866    5.48663713826398   -2.69430938880435
H         5.90045610753251    5.08027420132211   -2.58067839995982
N         0.67946430224047    3.50649354805743    2.66321152274431
C         1.37989282667177    2.69728234809713    2.24172745363700
C         2.24282609249948    1.68911905772601    1.71458251821560
H         3.01639669953937    2.15765345038038    1.10660695741926
H         1.66696481114181    0.99479895377776    1.10385970350953
H         2.70887813135957    1.14226161496884    2.53341665391883

