114
CSD_code = DOGLIW | q = 0 | S = 0 | Stoichiometry = C50H56O5P2Ru | MND = 6
C         9.34661812175258   14.29700411238766    4.71956825530940
C         8.58138623843436   15.40530938202898    4.35949946491895
H         8.18668324168886   15.48455653333565    3.35608820031441
C         8.31178595803507   16.39818478075914    5.28281274710732
H         7.72461635040614   17.25714092750997    4.99133362386848
C         8.78599371844775   16.28914552893266    6.58109258522734
H         8.56779236540788   17.06203585432320    7.30379193515883
C         9.53322685528159   15.18349826662709    6.94968836831503
H         9.89922274977914   15.09169511256850    7.96224213371554
C         9.81312237282583   14.19118314727087    6.02620943238213
H        10.39678068935278   13.33017077332297    6.32005949995462
C        10.94879736375358   12.00358984951808    4.19492241322657
C        10.58111427740728   10.99519215957864    5.08593759092050
H         9.52656765731223   10.84500885183829    5.29569622654701
C        11.54125362935288   10.19196609410828    5.67047311044889
H        11.25031517703451    9.41248856726669    6.35951928557142
C        12.87893101776971   10.38244071112645    5.35990058069065
H        13.63335053543275    9.75155998040552    5.80707503455782
C        13.24907108633917   11.37875518912882    4.47231589652616
H        14.29199753078665   11.52359198696038    4.22963788527203
C        12.29096369593379   12.19245184186209    3.89116663968655
H        12.59652037645836   12.96704434488153    3.20399996842582
C        10.22593996245304   13.83422045806985    2.04837141577050
H         9.47764475262894   14.57555783208022    1.75496770686810
H        11.13378352109458   14.36671767198548    2.34883693971717
C        10.50006481390877   12.89871818823751    0.86869666689884
H        11.13398505892148   13.42506361763097    0.14837934065505
H        11.05008946632462   12.01675036891193    1.21591388958561
C         9.21883062256938   12.45332716456305    0.15908967887662
H         9.45318771014445   12.05875836174356   -0.83385644540072
H         8.53346568402145   13.29657774787453    0.05844828819250
C         9.54838160090566    9.77406338531565    0.90732678558474
C         9.85521034070777    9.27866811779507   -0.35752563795164
H         9.33512668674299    9.66278917230074   -1.22505158213344
C        10.80857043933796    8.28822844535839   -0.49818768391686
H        11.04362428719559    7.90225467389375   -1.47978211143924
C        11.46465098247266    7.78921583348900    0.61748287519230
H        12.21203950441667    7.01774975336912    0.50110699281887
C        11.15562955829216    8.27259752051523    1.87743590705118
H        11.65937703707846    7.88022403824319    2.74892142719637
C        10.19713601111086    9.26081885011618    2.02285270536251
H         9.92703116517372    9.63090394324300    3.00225078402374
C         6.97353371580804   10.61728911754763    0.06565161947459
C         6.61086236789837    9.27223622162405    0.05290143297753
H         7.21982313927083    8.55394323256303    0.58829314681473
C         5.48402605176581    8.86195174883216   -0.63411915732904
H         5.20644947382029    7.81721741010987   -0.64311750725066
C         4.70509982369732    9.79116609077327   -1.30447161453070
H         3.82255991298248    9.46995357910693   -1.83868128566546
C         5.04925682964750   11.13272609098209   -1.27524403404535
H         4.43101465376081   11.85872578246732   -1.78336170958948
C         6.17381174554765   11.55056476757324   -0.58641610688684
H         6.42084050005425   12.59994997639532   -0.53187341365915
C         6.49467879667865    9.63652144406426    3.70966099470330
C         5.63306303621680    8.48267026279597    4.21073233268016
C         6.49359510360497    7.29254629940317    4.62792419944093
H         7.20984252540868    7.60717820566680    5.38992512022578
H         7.06568750737081    6.93483007898446    3.76797670017903
C         5.59165071251561    6.18312069371658    5.16584882047058
H         6.20801695111670    5.32603253368918    5.46182827684367
C         4.60663054030552    5.75093138150176    4.07967763066500
H         5.15299712218196    5.37027171941420    3.21332700109463
H         3.96978369667987    4.94549271269170    4.45440453149829
C         3.74659457893985    6.94555824129707    3.66733165941703
H         3.04064124482605    6.63732561433349    2.88718750366561
C         4.64566839273185    8.05425595865974    3.12434497146550
H         5.19634429304564    7.69804277927928    2.24997744017003
H         4.05263142756049    8.91580137858069    2.80910958282666
C         2.97150415572579    7.45899871096994    4.88029097285900
H         2.31519001435637    6.67338686733350    5.26333463972443
H         2.34557938284098    8.30606010474220    4.58887692053770
C         3.95626336714010    7.88886310854738    5.96678550332558
H         3.40247437923232    8.26046315307813    6.83787309269808
C         4.81711559436443    6.69562946742339    6.37984336135696
H         5.51425618746058    6.99459145042459    7.16642078106109
H         4.18209372001201    5.90084274937619    6.77938267499000
C         4.85316553165799    8.99986268022269    5.42685907458609
H         4.24952398305686    9.86160471176947    5.12681813486105
H         5.55483376689907    9.33009759419536    6.19889823952084
C         5.91894507600388   13.21653460613708    4.73441934308504
C         4.92667757149150   13.68241518554417    5.77652299329919
C         4.93904997611073   15.21208380470180    5.86771020700961
H         4.71083445314955   15.63799743777336    4.88932963570579
H         5.93578791294431   15.55051860035336    6.16110787648419
C         3.90559762770064   15.65956461691623    6.90026033687511
H         3.91695328905937   16.75310333233658    6.96718052204475
C         4.25315786665752   15.06104273840778    8.26270514973615
H         5.24166156441151   15.40337506649781    8.57758795596752
H         3.52866419353645   15.39263727532342    9.00990522863955
C         4.23875723694194   13.53598323978493    8.16622424911594
H         4.48689624652957   13.10549168609580    9.14274187422305
C         5.27229274048753   13.08017068501346    7.13846139259711
H         6.27398950261140   13.40125510873282    7.43525329230255
H         5.28032808602027   11.99045858192353    7.06719048228060
C         3.53098916570057   13.21177283454295    5.34044671473657
H         3.52184152817942   12.12248327759650    5.25207235777748
H         3.29558089285408   13.63113296237548    4.36030544561618
C         2.50457242314677   13.66429690626473    6.37683681988659
H         1.51018117471381   13.32398028037051    6.06726372932077
C         2.85040193112678   13.06157786946051    7.73794816696067
H         2.83325527711499   11.97095931436516    7.67713253628763
H         2.10805396126129   13.36744311948784    8.47856530820520
C         2.51599189308655   15.18912542102146    6.47285204275053
H         1.77133468931800   15.52081064847701    7.19990017931657
H         2.25768959361102   15.62422884741226    5.50514441179280
C         6.78728613571774   13.37423821165610    2.53920151283129
O         7.71299583252353    9.67917722969878    3.98015952326777
O         5.93845379053740   10.55071974182169    3.04861269752133
O         6.75369972820920   12.35587379661636    4.97518542822302
O         5.81957942699445   13.80568815028537    3.57033992059350
O         6.74973369414361   14.01961762723227    1.53305639424760
P         9.54689814735553   12.94251642429813    3.51152247431042
P         8.35452111835448   11.13795767255527    1.11929776509668
Ru        7.66276181186675   11.77214463684631    3.16414567957969

