142
CSD_code = DOGMIY | q = 0 | S = 0 | Stoichiometry = C57H78N6Ti | MND = 4
Ti       15.46035947568360    2.02700151544318    3.98064619210972
N        13.87324042797930    3.05498084372593    4.90314740564502
H        14.09615723615450    4.04509953300863    5.01518964182811
N        12.38704939793973    3.41406094190750    6.74037716100456
N        12.48521710911574    1.39690022145445    5.87477283573420
N        14.84273955381610    1.71924381097062    2.18448829310934
H        14.52294410782114    0.74929998702716    2.23013095301278
N        15.99725888560031    0.29079945473896    4.62505984247139
H        15.76136307319257   -0.31260086067846    3.83589100345333
N        16.69265884936963    3.17304295688043    4.28675096695909
C        12.98887400660452    2.66019338427308    5.76623984269511
C        11.51834352572887    2.60706918961865    7.45202583250294
H        10.93319370478677    2.99398398198624    8.26028294968506
C        11.57777417421268    1.37302385432019    6.92275170889711
H        11.05083721637290    0.47769148281279    7.17883689567862
C        12.53402472405409    4.81635740845209    6.92748442938204
C        11.86434715517100    5.69380825110396    6.07411965371434
C        11.97541118341691    7.05591103031561    6.31057839924073
H        11.46361733371913    7.74520107819834    5.65525144511389
C        12.72576193255821    7.55063021478357    7.36820497011068
C        13.39342914781282    6.65272090672251    8.19156932105967
H        13.99244780452741    7.02824959617691    9.00833056581853
C        13.31670583569422    5.28524474305295    7.98308580770434
C        14.07565099837168    4.32118109107074    8.83909618492610
H        13.40314537494209    3.62148341327454    9.33501034708786
H        14.64814126410829    4.84747912778277    9.59775263285082
H        14.76417827795442    3.74790168501271    8.21753909089155
C        11.05284684387489    5.17355648506895    4.92711130583157
H        10.46597141812972    5.97222977982329    4.48225510529342
H        10.37524754729245    4.38613342886959    5.25653260757706
H        11.70584428059741    4.76030335568618    4.15741990609649
C        12.85057434394276    9.02412540805215    7.59620488363207
H        13.75889178380178    9.39301836993519    7.11902208431117
H        12.91615907273568    9.24810541911894    8.65831602312900
H        12.00459812952249    9.55807936746898    7.17115452119974
C        12.66375157370833    0.30934546128823    4.97598539060489
C        13.17659654689266   -0.90221245932446    5.44832826981777
C        13.17167446035377   -2.00102006814405    4.59899465664866
H        13.54046242949891   -2.94541208645504    4.97375417280370
C        12.69232357816313   -1.92159694041171    3.29908438891710
C        12.21415496129076   -0.70021674729016    2.84681366418356
H        11.83178426763316   -0.62070584734382    1.83937883270734
C        12.17497529415881    0.41813958865052    3.66771194161492
C        11.59318161913405    1.70001725002500    3.15647002821747
H        10.92073105754816    2.14785414868982    3.88799415411161
H        11.04048187813897    1.52626413671683    2.23624305302458
H        12.40139931263977    2.40699323745675    2.94589805901070
C        13.73369762904061   -1.06169673974462    6.82888209523777
H        14.80729520343356   -1.23886937003416    6.75702062718658
H        13.28401650948341   -1.92137972150557    7.32401439840585
H        13.57432280386224   -0.17870283052894    7.44002564701979
C        12.69159527323504   -3.12884313164396    2.41402265936480
H        12.07855574121810   -2.96476470822191    1.53182276899597
H        12.31389405760331   -3.99652664522337    2.95135302396921
H        13.70670996513121   -3.35775988278088    2.09089801528384
C        17.03722283645773   -0.26851510956602    5.32264643110619
C        17.33367966827194    0.16333523133065    6.63928384560633
C        18.31639807004105   -0.47729213651591    7.37416545958226
H        18.53682812188161   -0.13657051440893    8.37514754991205
C        19.01397576164751   -1.55609381096223    6.86750286721304
H        19.76208797266190   -2.05703472934578    7.46374310793644
C        18.74893995088623   -1.97592569093927    5.57749416368975
H        19.30588780810055   -2.81008545697713    5.17968781195042
C        17.80055357335309   -1.34667958909238    4.79228556738282
C        16.60510186649054    1.32810404998516    7.27438171978101
H        15.75588392761938    1.60183354089491    6.61964366585625
C        16.08440872015053    0.96927202319052    8.67376111030871
H        15.64767305591757   -0.02612071401121    8.68937416642929
H        15.33216896461375    1.68257156429083    9.00524022858207
H        16.89600419056104    0.98875303494263    9.39716145871038
C        17.55079816621782    2.52954686278720    7.36203005349904
H        18.46182445425039    2.25515986748306    7.88981226212625
H        17.08182726684346    3.35574002143627    7.89408850020161
H        17.81310510642996    2.85733018371161    6.35765597987291
C        17.58591864588995   -1.81004325200995    3.36296572339729
H        17.29543694346207   -0.93473766088460    2.76112959071976
C        16.46786947365305   -2.85823655320434    3.30375789916958
H        16.75023904512599   -3.73038416559790    3.89125924744051
H        16.29634185100718   -3.17703321133634    2.27626682602630
H        15.53727272364214   -2.46626639384166    3.70956555880253
C        18.84678955120645   -2.38941114311341    2.71681138863659
H        19.70641595078480   -1.75140495815984    2.90580115521492
H        18.70529121843186   -2.46985416011029    1.64031667285704
H        19.06339667539061   -3.38507482627039    3.09733738348869
C        17.61433816150495    4.06825114002063    3.94746685900390
C        17.65040294687637    5.34861027703226    4.57078009882226
C        18.60769780787196    6.27080860634812    4.19942007892586
H        18.62054793209246    7.24738886288994    4.66440456242670
C        19.56103709049203    5.96980966353722    3.24191678865892
H        20.30959677455883    6.69952673342124    2.96931879553776
C        19.54992230822329    4.72129149600029    2.63762759335547
H        20.30429834303767    4.49441767182077    1.89743882671415
C        18.59843768235832    3.77563015351822    2.95626226492023
C        18.58212602171005    2.40313114480276    2.32416105838616
H        17.55160037690532    2.00235095307074    2.44147614953220
C        19.53482730725935    1.48490665123611    3.09880627497622
H        20.53721649469043    1.90979117418801    3.11521234316514
H        19.58250168632195    0.50298857552076    2.63325667261642
H        19.18507771538329    1.36913212066254    4.12457614141781
C        18.92722625530920    2.41536469518824    0.83549385703843
H        18.29394249581028    3.12086816280080    0.30279335316368
H        18.76529693920516    1.42805629192188    0.40615680628083
H        19.96897896560473    2.68374467980817    0.67468420023732
C        16.60491036505739    5.67045875184667    5.61733044521280
H        16.13379280866677    4.71438817727962    5.89450925497170
C        15.52351894804529    6.58870692749570    5.03857647603810
H        15.96946902255425    7.51370067973902    4.67774310237054
H        14.78144854351391    6.83644835338525    5.79599138180872
H        15.02272366422214    6.10061196170396    4.20426516178942
C        17.20556118440008    6.29814144017166    6.87556662406385
H        18.02774617282343    5.69118167980856    7.24595426784460
H        16.44754633890847    6.37830941585610    7.65397047676298
H        17.58273235260781    7.29678719239385    6.66932509592133
C        15.18032899443042    2.03893518353894    0.89555435350827
C        15.34236258528273    1.05658734365287   -0.11690425700355
C        15.58769422505648    1.44752957335881   -1.42361652100053
H        15.69559932776330    0.69459551489614   -2.19142122250734
C        15.69597886739411    2.77631193687487   -1.77642832813195
H        15.88081874390391    3.05903242696520   -2.80214874059403
C        15.56433386332059    3.74003637585654   -0.79263796935961
H        15.64619763168484    4.77970744899074   -1.06999269516201
C        15.31813553605034    3.40291472357247    0.52423550882024
C        15.13081930637366    4.49791618921865    1.55293078031625
H        15.32279077267240    4.06032142837789    2.54909424362198
C        13.68147923261001    4.99979263250142    1.50439583546807
H        13.46485871712586    5.42639321773789    0.52615027733403
H        13.51141986940887    5.76786252246259    2.25858026108914
H        12.98777024441355    4.17749992662388    1.67390836245165
C        16.09604337945906    5.66687197897019    1.34413708827327
H        17.11228748237255    5.30119711581844    1.22810412676438
H        16.08049483495628    6.32887926767004    2.20525239602368
H        15.82646865955081    6.25211025986738    0.46723148690582
C        15.26603687267323   -0.43499874089160    0.15678427693536
H        15.14206226150705   -0.62420724594401    1.23120183398172
C        14.06684595398102   -1.06022862740959   -0.56161828876275
H        13.14501773779227   -0.56550222828193   -0.26190759599894
H        13.98837887371258   -2.12072603890842   -0.32705818964221
H        14.16891825093393   -0.95540336166051   -1.63871330587309
C        16.56568265501927   -1.12922061546051   -0.26009600705039
H        16.72465823631864   -1.05514006423877   -1.33241078381440
H        16.53374285797634   -2.18539427171245    0.00465771142217
H        17.41330040049075   -0.66747691125727    0.24230629763294

