116
CSD_code = DOGMUK | q = 0 | S = 0 | Stoichiometry = C43H66N6Ti | MND = 4
Ti        9.09684168016955    2.98513735886767    5.23244501321796
N        10.80675892742923    3.53854939852960    4.85429444658409
N        11.53586725472077    5.67448503652973    4.00648476642078
N        13.06322561982247    4.26218977349935    4.76075103854065
N         8.64360739000207    3.33588867099038    7.01059038513379
N         7.81839054180223    3.79645382163823    4.13397550339686
N         8.68420733090046    1.14215589767403    4.80768303755321
H         7.88751141458275    1.16328730285001    4.17055390503455
C        11.68017861897079    4.38893165101570    4.56581051877018
C        13.70657342121992    5.41448579388962    4.35406622283218
H        14.77024505642671    5.51349014573598    4.42855953477457
C        12.78216891382604    6.26813549403832    3.88668442042482
H        12.89056216280978    7.26130952560013    3.49749076107112
C        10.36450530021493    6.25180232734970    3.46428041588339
C         9.38612621716405    6.76563773403808    4.32627349911774
C         8.27964444429833    7.38847098415744    3.76607382355150
H         7.51521274504293    7.80875211565506    4.39914981597882
C         8.14315556391815    7.49342370747756    2.39407891226049
H         7.27331517695360    7.97857769868249    1.97482797720511
C         9.11560950761771    6.98360024214066    1.55593291511729
H         8.98942140550935    7.07351603666594    0.48874002185216
C        10.24609868985400    6.36386846295608    2.07150357290597
C        11.30873242495428    5.79827001579342    1.15275628686593
H        12.27513227193147    5.85075844563811    1.66318619264285
C        11.44892180794647    6.57084665426437   -0.15921183820640
H        12.34694947002101    6.24433120604686   -0.67964631783929
H        11.52988707053631    7.63935273353817    0.02812767855530
H        10.60214718745602    6.39367636159665   -0.81748876513251
C        11.01178711408912    4.32209244609776    0.87441831816043
H        10.06494910681367    4.21832668835781    0.34836125813378
H        10.95355950337844    3.76847371756667    1.80997602981716
H        11.79909656100621    3.88993802730670    0.25959678644947
C         9.60262636420800    6.70121133010529    5.82319403124775
H         9.96111087268903    5.68814205098714    6.05661712267013
C         8.33320581696158    6.93722897369506    6.63854775245518
H         7.97018672022869    7.95673247791319    6.52180438885073
H         8.54835946786886    6.78299225898357    7.69395395645801
H         7.55801601895413    6.23691854366078    6.34010418538829
C        10.66103033087285    7.73164912075350    6.24025821187151
H        11.61512492624303    7.54713029492387    5.75497247399263
H        10.81395963409832    7.69382762995014    7.31692351566882
H        10.32954018779003    8.73450489155487    5.97482586814162
C        13.73994685499209    3.11588803568582    5.23614277582949
C        13.95459708840382    2.03901178053857    4.36930098139163
C        14.64758592033063    0.93614359238736    4.84880494624328
H        14.80112317381142    0.08106605928848    4.21006926053687
C        15.16013686315697    0.92524455958270    6.13234072294051
H        15.71479637710876    0.06763046470647    6.48386712696985
C        14.96516859055715    2.00886336473695    6.96818966106397
H        15.37674637672971    1.98949918120082    7.96559227695993
C        14.23548244855952    3.11063358387416    6.54357453003738
C        13.39996104126907    3.82706988056143    8.79955611756831
H        12.50828862908689    3.23232506874967    8.61870053904305
H        13.12564141515533    4.69244744344907    9.39956079847765
H        14.10569814090647    3.22896920004281    9.37012895966257
C        14.00646475568929    4.28159855964997    7.47115710181395
H        13.29532645531483    4.96686925613015    6.99876159379445
C        15.31690474554870    5.03607170257663    7.71134523447943
H        16.04995632460851    4.38785464638813    8.18575720194753
H        15.14437975082904    5.89347575779903    8.35832509253300
H        15.73448466834922    5.39230832513223    6.77248982397633
C        12.16954481884177    1.27429336435518    2.81565389995935
H        12.33634519400785    0.23919748662340    3.10268471094419
H        11.80978351786239    1.29547275804789    1.78859507989413
H        11.40061275368059    1.69196160419085    3.47302834404319
C        13.46162132301984    2.08325044936161    2.94292319220894
H        13.24150693043990    3.12487859799392    2.68737204349084
C        14.51517903474646    1.57832357796941    1.95457024314926
H        15.47219385305844    2.06666754373317    2.12730084576408
H        14.19662159318125    1.79357960203220    0.93677213005708
H        14.65218874139160    0.50392312116624    2.04044697489378
C         9.52249312351692    3.77575231937004    8.06457415586556
H         9.10814501561918    4.64760813276311    8.60307973978269
H        10.49635964054608    4.05204646222669    7.64788037271294
H         9.67851393933136    2.98336752315998    8.82175948973248
C         7.37152664065631    2.91817247308139    7.54585644572612
H         7.49616955112314    2.20026227078957    8.37633238389401
H         6.77350164769328    2.43868067507520    6.76329489300347
H         6.80036033519888    3.77486650976988    7.95387005005382
C         7.95424995882309    3.62293262931033    2.71035712659713
H         7.12906664775566    3.00506994957678    2.29782809743311
H         8.90824613408832    3.13451555255503    2.48452305198434
H         7.92145704411754    4.59033921195097    2.17870402900817
C         6.53173582582994    4.36160048016852    4.44137174250998
H         6.39343497220362    5.33543266336481    3.93773304036773
H         6.42496996411518    4.50946500348236    5.51673236405746
H         5.70750633823258    3.70370229176751    4.09874489942621
C         9.51025992316813    0.08832141823576    4.52650599269603
C        10.49252025294668   -0.29228422630194    5.47937929232792
C        11.30948136581454   -1.37769925279534    5.23317332751939
H        12.05601890585378   -1.66635581995384    5.95675434619002
C        11.17870844885080   -2.12811585409822    4.07594262127449
H        11.81461910574617   -2.98479763979255    3.90545611314642
C        10.21654684144565   -1.77802937015588    3.14814569607286
H        10.11303440421083   -2.37728906065597    2.25636535470191
C         9.39649175521388   -0.67877328718991    3.33646880166683
C         8.36457660620817   -0.31090864388857    2.28710989666329
H         8.23015325665529    0.77922987794002    2.30482326555194
C         8.79085810410374   -0.66508574579620    0.86133672610690
H         8.75702011341607   -1.73824873028698    0.69123590951116
H         9.80065931766879   -0.31126712270776    0.66641796564389
H         8.11549629240846   -0.19458754071835    0.14814745916028
C         7.02216851801783   -0.97865220580518    2.61107921196249
H         7.12925466173931   -2.06091155152127    2.57244952290053
H         6.25880034257960   -0.68011737593807    1.89351826095638
H         6.68412826004560   -0.71032739274489    3.61068973901757
C        10.53996397396125    0.45777842675568    6.79189019485031
H        10.39111708452452    1.53347302508796    6.56486917029177
C        11.85089850995136    0.30111803199268    7.55787827414086
H        11.97258922541685   -0.71726474190417    7.92272995086679
H        11.85365689574779    0.96243011802542    8.42271359715610
H        12.69727133598976    0.55606243005687    6.92728485262717
C         9.37528819796523   -0.03540190927021    7.66161698564218
H         8.42994614486200    0.14394605349144    7.15229424522963
H         9.36551968426934    0.47520471012245    8.62345336127061
H         9.47757807042516   -1.10513238514353    7.84178812922755

