103
CSD_code = DOGNAQ | q = 1 | S = 0 | Stoichiometry = C38H60NP3Rh(1+) | MND = 4
Rh        9.85786460996501   10.22374233833072    3.71208408672609
H        11.28389404497580   11.46922343238774    2.16917918309943
C         8.75047693947372   13.45180576124270    5.57700625556299
N        10.33216496647087   11.27365637427098    1.83423509254104
P         8.66431893565039   12.25102018872449    4.09575921706564
P        10.79115911579648    8.42942971444939    2.52092274976861
C        10.23433009529212   13.79774712153645    5.76464346719916
H        10.87106390886331   12.94763792293677    5.53166125678115
H        10.42638227567785   14.07743915225688    6.79831876549387
H        10.52515695248331   14.64058187183647    5.14214498558829
P         9.93125147966536    9.41292672611849    5.86542765674597
C         8.24260742774913   12.72637662604014    6.82488080337959
H         7.15879578200283   12.70401209044688    6.86634634030244
H         8.59476592506773   13.23282489665246    7.72176126477287
H         8.60822789863485   11.70200541922602    6.84731860427901
C         6.43281544137252   13.43000886452455    2.64028755511846
H         6.96809627218613   13.49014370712102    1.69630913589682
H         6.56455382239132   14.36344722260251    3.17732503782614
H         5.37344956673588   13.33478323432284    2.40488001600905
C         5.86731119636790   12.06630389421332    4.63628248479303
H         4.90044765644654   11.74431927122039    4.25115304161610
H         5.70845609273915   13.00878516824030    5.15052137531343
H         6.20676720263832   11.32704500924565    5.35467425609492
C         6.85018183500040   12.21635680565239    3.47208883624916
C         7.99059787438805   14.76767230421437    5.41400177057375
H         8.30577614858911   15.31365387555713    4.52817571246255
H         8.21005797363509   15.39353394864281    6.27823538524652
H         6.91523946341689   14.62804807365553    5.38170071857998
C         6.73102283456661   10.96346000147614    2.59919500553934
H         5.69219572755898   10.79303131840805    2.32146776272469
H         7.08378345026584   10.08743547266146    3.14605298929418
H         7.30245324924333   11.06126657115384    1.67938836834401
C         9.46710977736520    7.17123060381531    1.99788926246075
C         9.92078320802568    6.01806248600108    1.10936012599450
H         9.04355043269883    5.44025134553087    0.82002370504406
H        10.60044656558435    5.34392006238172    1.61997109014419
H        10.39101603102256    6.37298693143973    0.19454747482968
C         8.83286509788170    6.63506673946893    3.28082758614048
H         7.93951977615136    6.05835111279361    3.04717245504798
H         8.54802235543858    7.46984215287523    3.92593416788600
H         9.51558363464041    5.99101796850556    3.82586689160518
C        12.43187804914097    7.51298911425894    2.85169034243889
C         8.40258840439598    7.97060221883938    1.24270979848768
H         8.70780924091934    8.17158221395709    0.21864782544384
H         8.20982623875167    8.90917563709592    1.76078448266822
H         7.47192885407346    7.40751160520619    1.20285683844247
C        13.30853953090118    8.53408468842332    3.58084112258458
H        13.39118833262902    9.46723620846000    3.02214738154429
H        14.31325121735324    8.13846143492000    3.71632442916982
H        12.89047841895023    8.74137285596633    4.56251935094440
C        12.22315846979815    6.31654117557774    3.77790158378877
H        11.81437968828989    5.46217987070568    3.24702122720924
H        11.56292968283825    6.57107407202898    4.59910889758756
H        13.17984884842198    6.01233554966364    4.20016407562468
C        13.16706473121944    7.03328313229550    1.59657976146416
H        12.52808745498897    6.45661724423302    0.93716864524963
H        13.98453174464014    6.38589289005019    1.91051208327778
H        13.60634157579428    7.85036915841944    1.03126353001090
C         9.71157678659147   12.56704956441372    1.54083753772739
H         8.76336727669818   12.38276678930258    1.03089302094350
H        10.34399115838909   13.14776852206113    0.85198821200152
C        11.27034366348248    9.22051959145640    0.89975256122078
H        12.31891019248034    9.51176653518093    0.99200268201926
H        11.18932212930745    8.51048194109211    0.07716364675851
C        10.45776828326751   10.47144903531804    0.61685832943152
H        10.94846671311977   11.05723369191655   -0.17616108383671
H         9.45342366326293   10.22610150265561    0.26718078201502
C        10.73353165233919    7.86671208058885    6.47245829138143
C         9.97073051931788    6.70040480479288    6.53257451223905
H         8.94280683697136    6.71295567476428    6.20066319305238
C        10.51181895633519    5.52922379338238    7.02829226800612
H         9.90566528695653    4.63704304030090    7.07212629106148
C        11.82327750567848    5.50257812585287    7.47499508327568
H        12.24418413101701    4.58980335574211    7.86705182998595
C        12.58574542605546    6.65628785748179    7.42578605219169
H        13.60455195978567    6.64822924292973    7.78278716383393
C        12.04723348691681    7.83122339233612    6.92948528472216
H        12.65701959421906    8.72246348116821    6.91682138552531
C        11.00603343708853   10.59169935298991    6.77144401202551
C        12.10249106852886   11.04757502329652    6.03870982731086
H        12.17522398572610   10.77735908271404    4.98677543182849
C        13.07426131695277   11.83663194298231    6.62539390010405
H        13.92609826325381   12.16723313030777    6.04961815308552
C        12.94488116785936   12.20819450230528    7.95388122648790
H        13.69960157813521   12.82229357551902    8.42023778504112
C        11.83623080552750   11.79996258877320    8.67553660509350
H        11.72100630319732   12.10670903659582    9.70423733195195
C        10.87344362054669   10.99116428105250    8.09443590530832
H        10.01546475445984   10.69525457840791    8.67671264518238
C         8.39778984039541    9.16840099267100    6.83286642183569
C         7.19372912252572    9.19253414625733    6.14224081280132
H         7.21918596381572    9.39426924781142    5.07906161252113
C         5.99741820074740    8.93824597421813    6.78899790988224
H         5.06872900624255    8.95543650173497    6.23833576449171
C         5.99898574692835    8.65301251426555    8.14331701052488
H         5.06998395643019    8.46095382126073    8.65745416885967
C         7.19983505988492    8.58499047597181    8.83308391082299
H         7.20447566292865    8.32933949488292    9.88190183765801
C         8.39635708349742    8.82105234626837    8.18227443920481
H         9.32737685487731    8.70030671116538    8.71637077087457
C         9.49344813094161   13.33751043779584    2.82809900141642
H         8.92963059885536   14.24998153113372    2.64214826633054
H        10.46788972123479   13.61166383459372    3.23754488972532

