74
CSD_code = DOGROJ | q = 0 | S = 0 | Stoichiometry = C38H31ClN2PRh | MND = 6
Rh        6.57106812508545    8.97742825721761   11.97192336363204
Cl        8.27124762937618    7.72853692875861   12.94704913518323
P         5.65461452305801    7.00324752332882   11.51110085877773
N         6.38602983245448    9.80674305627802   14.37453023571443
N         7.53014391172284   10.96678903493821   12.31364316920918
C         5.66191414387367    9.30672488643157   15.36452614699585
H         4.72196558195490    8.85362740263547   15.07716418709826
C         6.06288549515322    9.34508431462772   16.68895863408054
H         5.44468831647412    8.91393493841477   17.46058179993333
C         7.27370691232816    9.94832910071696   16.99117834141413
H         7.62577158609749   10.00189798853899   18.01106492316719
C         8.02622297830971   10.48292776169659   15.96084436447427
H         8.97517756101715   10.95944233360344   16.15609035896348
C         7.55074755233729   10.38381302463245   14.65870981935487
C         8.36826019914724   10.90064087928891   13.49982800773128
H         8.83034048546788   11.85893141120604   13.77101089479385
H         9.16819108823740   10.17561661867981   13.30461109873722
C         8.16807925188253   11.19495724910986   11.04416712224770
C         9.35001721810061   11.89438541843658   10.88623376917349
H         9.87124274864791   12.29548102033212   11.74220463327210
C         9.89327016969074   12.04924753831893    9.61850093676411
H        10.82897579813003   12.57487132306824    9.50076970486987
C         9.24703424072668   11.52268481419889    8.51507054790964
H         9.67764650778467   11.63818591352560    7.53162793204619
C         8.05475012262814   10.83557248477741    8.66867171932447
H         7.55620651419122   10.41326011735313    7.80780545934183
C         7.49213427600453   10.66735701919142    9.92903619446816
C         6.25502723333304    9.89979226096759   10.13550524465658
H         5.94635413073002    9.30151516339486    9.27763287058162
C         5.22064883118417   10.30469495279181   11.03335871250330
H         4.21517200808327    9.97473095681188   10.77954666315674
C         5.27394152079583   11.57852063205129   11.74603785661909
C         4.18111041349458   12.43708714689927   11.81859421492511
H         3.25254133867630   12.14957869709754   11.34663552878863
C         4.28099095784494   13.64323332991883   12.48623570976807
H         3.42725813977215   14.30247227044583   12.54059629669025
C         5.47530904601266   14.00916166568754   13.08265267153948
H         5.55757336871366   14.95381771647838   13.59920308734176
C         6.57046089738249   13.16026584473767   13.03226123412820
H         7.48789475480643   13.46133684207104   13.51502045541901
C         6.46496531097818   11.94149125961749   12.38713194606203
C         4.96110913443626    5.99923362369779   12.87053877778728
C         5.53608120083649    6.10008230611068   14.13247564198201
H         6.37308092997425    6.76753434154655   14.27781621071250
C         5.04987689338292    5.34408663608937   15.18409104448286
H         5.50319845848010    5.42983812660496   16.16086471220841
C         3.98561814587883    4.48072581951128   14.98509504731239
H         3.60338679522654    3.89090152018680   15.80559595434568
C         3.40986671144217    4.37377633895873   13.72922460259985
H         2.58182442557257    3.69788650515862   13.56960227455003
C         3.89193964764688    5.12783529297833   12.67468424312669
H         3.43418894658958    5.04154513382664   11.69862611192017
C         4.23431939229606    7.07761802923108   10.36629187429374
C         3.05014246191376    7.63039187180154   10.84961880598822
H         2.99643218455148    7.92203608699006   11.89110557956825
C         1.96211444754765    7.79425152563500   10.01459625914812
H         1.04398494008718    8.21598684634697   10.39774452214428
C         2.05086535015390    7.42085961373637    8.68193731108322
H         1.20162373465753    7.54954744851192    8.02700588941375
C         3.22970936199889    6.88556537579728    8.19167014292332
H         3.30094700078015    6.59777734767827    7.15263598838505
C         4.32076286960211    6.71731721545742    9.02778452333663
H         5.24083656789746    6.30023919137093    8.64245437756623
C         6.75894050251759    5.83114243229053   10.65623686090383
C         6.57468435808649    4.45427027828842   10.69148054297257
H         5.77172114281931    4.02897925896905   11.27650739990583
C         7.42907408565403    3.62668648410425    9.98428556494691
H         7.28633555026102    2.55608983572899   10.01657091531683
C         8.46678245908458    4.16467255361863    9.24116517381288
H         9.13249320834107    3.51329693285332    8.69365591936635
C         8.65708859109502    5.53679855123391    9.20918914222719
H         9.47245669822436    5.95730264815406    8.63876155353655
C         7.80703466639906    6.36732505036556    9.91486132105739
H         7.95849846869875    7.44128260461420    9.91770986456803

