74
CSD_code = DOGSID | q = 0 | S = 0 | Stoichiometry = C32H28BF10NSiZr | MND = 13
Zr        4.28078115978199    4.09942839002459    4.68770243017376
C         3.78050211395506    1.76720130746256    4.04039738619910
H         2.77663710185764    1.42397499232610    3.82022088333205
C         4.75917959677222    2.12086391868449    3.08483760293267
H         4.63267078462706    2.11741606308895    2.01096569698518
C         5.98262289903645    2.29174276030748    3.75127905988230
H         6.94248411288731    2.44715965959278    3.27605258477483
C         5.77814261545155    2.00404621547536    5.11886466487384
H         6.56195602353646    1.90984700666980    5.85526012667827
C         4.42202665739938    1.67725859096223    5.30087860132782
H         3.97589537084968    1.28849890681880    6.20613063262116
C         2.14763264118918    4.82766856482089    3.52701384907492
H         1.13681872955912    4.53789345439116    3.78244007973893
C         2.81063374492991    5.98923140641147    3.98393097814583
H         2.41178948712519    6.71094010048923    4.68430984191581
C         4.00783173830215    6.12487124217991    3.24902470325498
H         4.67474439561141    6.97788727546119    3.27918159695636
C         4.08087476215918    5.05263872224487    2.33066972184096
H         4.81946760387815    4.94618772472639    1.54406821965277
C         2.91640310496558    4.27550722407066    2.48358858346699
H         2.59836513113947    3.47069630849059    1.83449865171423
C         3.05136005021848    4.08349835204538    6.57450738458309
C         4.19795691027835    4.29557003988110    7.05943411784223
Si        1.28587240581688    3.77137428514766    7.12381743712059
C         0.24552540779572    5.34937889179235    6.81741897393225
H         0.17904888406387    5.61122868795307    5.76608261327611
H         0.66978445387059    6.20090210426149    7.34107755738427
H        -0.76726422486552    5.21393397992587    7.18409002989421
C         0.64740400933058    2.31669462600748    6.04867268513515
H         0.79915916421796    2.48961907878666    4.98504909292399
H        -0.41437443765601    2.15434315192407    6.20482290720100
H         1.15577092872690    1.39276355770132    6.30914596372356
C         1.21450661001972    3.29587995974310    8.96798575669552
H         1.48522048640453    4.13632568913751    9.59903423135470
H         1.90781722157736    2.49034856409440    9.18522631310898
H         0.21995780123365    2.96929046082805    9.25656019592697
C         6.40894728874997    4.86646027946710    4.74530625688248
N         7.44804369182229    5.33450271316711    4.49009984552131
C         8.72412797669317    5.86517272856165    4.22367321922670
C         9.72539036191875    4.70717006389466    4.22202469618563
H         9.75227989058917    4.23136261868551    5.19795126594112
H        10.71747261451297    5.08555894272655    3.99310748894733
H         9.45466212719732    3.96438725417456    3.47452284962635
C         9.06786652745519    6.88252069417325    5.31435472925699
H         8.34896575637102    7.69843718528403    5.31781472984650
H        10.05709783637745    7.29148389865947    5.13007053694333
H         9.06257294376531    6.40549679265050    6.29003649879800
C         8.65702541598799    6.53914366638017    2.84779642821988
H         7.91539873516281    7.33522370844529    2.84933802181334
H         8.39058013491857    5.81639693647841    2.07919672697351
H         9.62474015320504    6.96752530709333    2.60282637786453
B         5.59724064585890    4.51306896220658    7.51139172380247
C         6.42445351086029    3.28942880435701    8.01406879396719
C         7.82343979504073    3.23059590010788    7.95287284943615
F         8.48776431686666    4.24019239741320    7.34659451254096
C         8.56714786074952    2.15373857575838    8.40027828440547
F         9.90451042133364    2.15960277799528    8.28675020541808
C         7.92036689159363    1.04518136346936    8.94050246870432
F         8.62342450494208   -0.00661189392684    9.38194675290553
C         6.52764612335850    1.03732866521875    8.98403781408360
F         5.88196278574323   -0.03517118629900    9.46659510871750
C         5.81841690482955    2.13235216649676    8.52395712593260
F         4.46977022905020    2.06438799320878    8.55173327244607
C         6.11276760603961    5.96527319668972    7.65663101491997
C         7.04784266984112    6.42679245748850    8.60710894176431
F         7.55898080087340    5.56178150909618    9.50007738813945
C         7.44729834949522    7.74743310628651    8.69655789054104
F         8.34414817138989    8.12155695121132    9.61912047887973
C         6.91690931310539    8.70985105146449    7.83340994333089
F         7.31386742141313    9.99022163179848    7.90210045677892
C         5.96567341079990    8.30902838855848    6.89637736009571
F         5.44011295611332    9.19621830013549    6.03394455042072
C         5.59089590957980    6.98497459351444    6.84738307914285
F         4.67078250034473    6.60402023399011    5.88029915593078

