26
CSD_code = DOGZII | q = 0 | S = 0 | Stoichiometry = C5H14Cl4N2Pt | MND = 6
Pt        0.17786008548661    2.29210388156759    3.52205981401426
Cl       -2.10925601213617    2.29225587398177    4.16756389532474
Cl       -0.15373562578569    0.60802256444627    1.99289650118249
Cl        2.48787916326669    2.29226791148858    3.06454546698117
N         0.45583283184582    0.74890975505878    4.96893127470379
C         1.42766374434382    1.01779508188960    6.02726280941737
C         1.13622021956242    2.29216431635208    6.84549479694741
C        -0.30020985582995    2.29216692890915    7.37507323836324
C         2.11081917680336    2.29217150943113    8.03061410107941
H         0.74052809122366   -0.06504656948963    4.41962371816034
H        -0.47387531209850    0.56396087666364    5.35182828908712
H         1.45824967862395    0.16739122436213    6.71940191180109
H         2.40893221609498    1.11599271151894    5.55537523840638
H        -1.03828952443548    2.29216005544947    6.57573252920530
H        -0.46726315287695    1.41421203456829    7.99467320214925
H         1.95838730507283    3.17090624495278    8.65117675133057
H         3.14010635072294    2.29216936494569    7.68214001107912
Cl       -0.15362743576449    3.97630308708265    1.99304389237445
N         0.45582112001046    3.83537751094753    4.96889137043526
C         1.42765058768762    3.56651977875118    6.02723595891510
H        -0.46726519057445    3.17013037906150    7.99466099205888
H         1.95838793021302    1.41344300001801    8.65118568413340
H         0.74051568006863    4.64933160947074    4.41957863965006
H        -0.47388405699691    4.02033519340519    5.35179223071682
H         1.45823070643278    4.41693294861390    6.71936352468035
H         2.40892127903945    3.46832272655267    5.55535415780297

