57
CSD_code = DOHCAE | q = 1 | S = 0 | Stoichiometry = C16H30CoN6O4(1+) | MND = 6
Co        4.61850542658513    3.18775297191702   -0.00002339077923
O         2.69252295328795    1.86709732105313    1.43649401000994
O         4.80972725242350    5.69841005890171   -1.08497734462118
N         2.96867035417752    2.94416202027862    0.88874661004763
N         4.07565401702248    4.94679759930824   -0.42733405541770
N         5.51224085646884    3.79869670378291    1.68136390321063
C         0.93378464321719    4.17090892548707    1.41360470785206
C         2.29071171870655    4.03857429213891    0.79514934926394
C         2.89985497699742    5.14133172514368    0.06852140664034
C         2.19294466492304    6.45135798883633   -0.09081265343619
C         4.93383774468765    3.47760247999136    3.00554747202021
C         5.92411685071288    4.08502064233481    4.00558982202614
C         6.57866380838679    5.24934325205122    3.23475690617468
C         5.91170679174056    5.21341637514024    1.85496670730466
H         1.23671330504682    6.31577731085240   -0.59274821506849
H         1.99908449209851    6.90457754501132    0.87986839493615
H         2.80973119918912    7.12716422460192   -0.67845053417038
H         6.40402004850090    3.29067420957443    1.67318619159513
H         3.96351845026569    3.96889343135353    3.09457157838949
H         4.79630224060668    2.40389020881824    3.12896405944712
H         6.66943885996551    3.34921925024551    4.30520712170755
H         5.41408907031098    4.42247645000118    4.90391379481228
H         7.65434922256880    5.10159254901723    3.14694531003052
H         6.41606107516348    6.20710240167285    3.72184529979165
H         5.01492595787315    5.83508570235446    1.85662070027021
H         6.56547513313575    5.54345924180929    1.04837486896345
H         0.18275585491227    4.38589589791631    0.65541789144199
H         0.91874814159504    4.98321141826646    2.13804588245202
H         0.67258730465223    3.24294970429753    1.91675836078912
N         6.26833004272008    3.43135763969220   -0.88879551010845
N         5.16137902810588    1.42872623924446    0.42732609092634
N         3.72474342735565    2.57678641632504   -1.68138504858805
O         6.54449728544473    4.50843334358242   -1.43651236404511
C         6.94628422689654    2.33694074134865   -0.79521348856966
O         4.42733228639358    0.67714256761948    1.08502944006565
C         6.33716237601300    1.23418448558194   -0.06856537759477
C         4.30320455127217    2.89776408505298   -3.00557064840743
C         3.32517822245193    1.16208319211143   -1.85491022717715
H         2.83300513829459    3.08488315173636   -1.67325630921446
C         8.30321491063226    2.20464981951704   -1.41364214158446
C         7.04411715752393   -0.07580839030281    0.09082451650403
C         3.31278733466577    2.29049627178925   -4.00555147403377
H         5.27343075178388    2.40628562081341   -3.09459504920339
H         4.44092481412667    3.97144918224618   -3.12902261297413
C         2.65836583077754    1.12606203193327   -3.23477564162978
H         4.22191024276535    0.54034551258065   -1.85642294160841
H         2.67130904689091    0.83215385609966   -1.04835247487172
H         9.05428223844821    1.98997043745503   -0.65538156796594
H         8.31838451433693    1.39215593066063   -2.13789253314296
H         8.56426489183398    3.13254184998443   -1.91702760871136
H         8.00013576368732    0.05979003913939    0.59316781473534
H         7.23841164838508   -0.52884595751274   -0.87985264854750
H         6.42717020481271   -0.75176394865371    0.67812345228671
H         2.56742115966584    3.02635448158410   -4.30492841323072
H         3.82266647056820    1.95318112449324   -4.90401002358607
H         1.58264591075630    1.27361044633732   -3.14708034554679
H         2.82119810817010    0.16832792738250   -3.72184101985890

