31
CSD_code = DOHDUA | q = 0 | S = 0 | Stoichiometry = C9H9NNiO11 | MND = 6
Ni       -2.55491254567896    4.72948188023699   21.22382938270503
N        -0.78173484739241    4.58690576987533   20.93803518784023
C        -0.34729589220023    3.50215376524900   20.28517349177411
C         1.00474407646375    3.40532033826843   19.94022784983390
C         1.81977233540051    4.47796881749914   20.29945600124826
H         2.87188367814688    4.43256669003864   20.04402568955812
C         1.34822416322604    5.60958133064041   20.96351991569118
C        -0.01487169292156    5.63037067221620   21.27650802261461
C        -1.53447288491817    2.56081203898916   20.04663945031131
C        -0.88958639383032    6.68053764420497   21.97322416587562
C         2.41274295146119    6.67198971440113   21.25058409724136
C         1.72827102067516    2.26842324898274   19.21333462687785
O        -2.63425113894078    3.02933162526985   20.47526320545730
O        -1.41020314009846    1.46835682793599   19.50898076431115
O        -2.98365621887249    3.80240792717273   23.44690459416546
H        -2.64872435379089    2.90121813905048   23.48398707727263
H        -2.49193456450741    4.32766719820522   24.08609382753584
O        -2.11504482455234    6.35196119524745   22.02516393307097
O        -0.42964476013311    7.71503900764827   22.43853286282745
O        -2.85268060775102    5.78245211906331   19.09255779603038
H        -3.49708185133911    5.24674941040216   18.61867175039807
H        -3.26622039546587    6.63178009182289   19.27863373684229
O         3.53911466475310    6.46301145059837   20.88548782911649
O        -4.58886042013622    4.93457883538747   21.41500786528682
H        -4.71671923536134    5.39917001839104   22.25194698056023
H        -4.91075447891663    4.03154637218402   21.53358956753358
O         2.07259245058805    7.76275118375071   21.88352835075637
H         1.10400919128817    7.84321425821993   22.14740074598554
O         2.90956010783593    2.37811715935301   19.01779076709303
O         1.05017095404885    1.21833321487370   18.83458510124662
H         0.06626465291602    1.21960205482977   19.04971536294079

