66
CSD_code = DOHFIR | q = 0 | S = 0 | Stoichiometry = C27H35IN2Ni | MND = 4
Ni       10.66044763597245    8.96363814707532    3.66007229408146
I        12.40541013563126   10.28285262099452    2.62640680470054
N         9.02391920137730    8.03505756133504    4.41330013076314
N        10.92390874423080    9.45879946020458    5.59461682219742
C         8.05358175671513    7.38981618140996    3.77523812978684
H         8.21512612796228    7.18350678893667    2.72574819761463
C         6.88376685595104    6.98262500346801    4.38413223871427
H         6.15045085990269    6.45865860265478    3.79309880748995
C         6.66346323617613    7.26423811873584    5.73195473581968
C         7.68738303718935    7.92729348731896    6.39188350906273
H         7.58134566245819    8.18908549664274    7.42970132633405
C         8.85670566871312    8.28259647085270    5.72206819346857
C         9.97634827612819    8.95492477933666    6.39920482683109
C        10.06787537115660    9.04612069429040    7.78607740646959
H         9.30247384180732    8.59469589118155    8.39219696468289
C        11.14121198131769    9.69229728335835    8.38423329249605
C        12.09801428521732   10.22414080488985    7.52223736835941
H        12.96360399522550   10.74589361317827    7.89600825217914
C        11.95331641530680   10.08005255269597    6.15600121567780
H        12.69833661022493   10.48864369169013    5.48605316844895
C         5.36676169231357    6.85358754930647    6.40098628311296
C         5.21916299809120    5.32898292930344    6.29618074997805
H         5.18684923132167    5.00234194827962    5.26045565973177
H         4.29869133939201    5.01225433966052    6.78078394612002
H         6.05448499783776    4.83201297961526    6.78593926151736
C         4.20198417955214    7.54220748157798    5.67561424747634
H         4.15563970582601    7.24862057056352    4.63049646770519
H         4.31246026146917    8.62387398664448    5.72235750971015
H         3.26008663759266    7.27203838507660    6.14711049345510
C         5.31729975163626    7.24481013398330    7.88012651062536
H         4.36880342930830    6.92519712558757    8.30562857926711
H         5.39133113402487    8.32312268009261    8.00497601052954
H         6.11387990816469    6.76126530752600    8.44204763042722
C        11.30113724300934    9.82710559360208    9.88573258173303
C        11.38454033647525   11.31821986989252   10.24135239861911
H        12.23875365444946   11.79364302403116    9.76763857240685
H        11.48398658839584   11.43716365507390   11.31770326836369
H        10.48297501784925   11.83619238888073    9.91972650581578
C        12.59642891893935    9.11719775963639   10.30449650963896
H        12.55604937592778    8.06340865500244   10.03500541199752
H        12.72886521985604    9.19188537499003   11.38127195723216
H        13.46429121721638    9.55956650661858    9.82313579539549
C        10.13458384030896    9.20935142208336   10.66123256702687
H        10.05759437233249    8.14029703001774   10.47309087788509
H         9.19273922846824    9.68958682136139   10.40308357769186
H        10.29741383758389    9.34791000315122   11.72764618275796
C        10.29628143558451    8.29830166310199    1.96709288788024
C         9.42957183609593    8.93055070643202    1.08638209112323
H         9.07712382509490    9.93697166079310    1.28262936505834
C         9.01902010554840    8.27304026938635   -0.06349576020067
H         8.33911802822869    8.76308380285371   -0.74571635110571
C         9.49495622109055    7.00397805680990   -0.34166796105229
H         9.18346259754368    6.49583710294738   -1.24288652281557
C        10.38554379123624    6.39077845514197    0.52195960965569
H        10.76661601246944    5.40732236151446    0.28644365581540
C        10.80171472092298    7.02884682224462    1.68324480371678
C        11.79494484500430    6.39357197666851    2.63617523841932
H        11.90974929922255    7.07938687917598    3.50692789803154
C        11.28956308710898    5.05042591071582    3.16124911271114
H        11.98023381271948    4.65084625754827    3.90180494701303
H        11.20284056067731    4.32825763582662    2.35262126666972
H        10.31125389456286    5.16349972065857    3.62699620719989
C        13.16077080329555    6.25144574941290    1.96665642372680
H        13.51429670657973    7.22322741498606    1.63026434469920
H        13.09749143338533    5.58960006898514    1.10586090262439
H        13.88646316761479    5.84194671293226    2.66670459944977

