53
CSD_code = DOHMET | q = 0 | S = 0 | Stoichiometry = C18H26N2O4S2Ti | MND = 6
Ti        5.75900185200666    2.80694606424832    7.59916572573364
S         3.38922186149037    2.34363293056117    8.26019671940776
O         5.88611437418520    4.11484897403367    8.64944292002621
O         5.48617799973572    1.03982832300853    6.76525155820963
N         4.60644525429619    0.20680929498810    7.27025744195335
C         6.10794236557359    4.64580646761177    9.90888196249203
C         5.16610376377337    3.95688049197294   10.91293912709378
H         4.13060186287508    4.15549891730715   10.63749317707197
H         5.34805571057907    4.31848357760097   11.92208038267963
H         5.33257334516219    2.88038706470337   10.87314856459636
C         7.57626598123189    4.38765765343724   10.29679266766605
H         7.75012071925424    3.31370145892972   10.35596732687388
H         7.80702334807109    4.84137216248451   11.25748088295808
H         8.23351470211445    4.80290965543881    9.53250499266782
C         5.83263908761386    6.16104147719278    9.89317158486537
H         6.48877524672346    6.65126349669945    9.17670983317032
H         6.00299230937043    6.58588827330059   10.87885316367735
H         4.80002598849199    6.34439811309652    9.60236170425674
C         4.77745088566384   -1.10712720328125    7.05231800090098
H         5.65159148992887   -1.35930212635582    6.46863669534562
C         3.89897194500789   -2.04145489604820    7.53658228879879
H         4.06991449213656   -3.08683333063912    7.34265329848516
C         2.79179945904733   -1.60615686058171    8.27052177235036
H         2.08157138946700   -2.31848617084666    8.65911434266133
C         2.62453532536277   -0.26296141253379    8.48825803614534
H         1.78941050537092    0.12532327029210    9.04790059053040
C         3.54658973022801    0.67791900638702    7.99716670366156
S         8.19926881478815    2.49730525662485    7.11140107671822
O         5.45095345279576    3.50200219845008    6.07695765581999
O         6.33252259470058    1.54764469249668    9.08385240410827
N         7.27065316231645    0.67350096971124    8.79310238141249
C         5.35828893111550    4.78006524342771    5.55282034368485
C         5.12261106799161    4.69557310525298    4.03484071437262
H         5.94749679617310    4.16090297593346    3.56849623139936
H         5.04840098365720    5.68991362644339    3.60214887409717
H         4.20258944553903    4.14916841318267    3.83764093543660
C         4.18052407427990    5.50040600385636    6.23549849295138
H         3.25005372864959    4.98496434521519    5.99777390921721
H         4.11246987078302    6.53528164035960    5.90867590337801
H         4.33273524922731    5.46020297908628    7.31566614880483
C         6.67315462036127    5.52857495498184    5.84124823714783
H         6.85014283880079    5.51499544941868    6.91840775073586
H         6.62279586198221    6.55533040169019    5.48637098988015
H         7.49947119979701    5.01562397148612    5.34838569698933
C         7.24802292403857   -0.51809147077433    9.40996095322438
H         6.42568562399375   -0.65851887099655   10.09748576173880
C         8.20540336350452   -1.47136756167299    9.17625501816261
H         8.15410667726334   -2.41730882360023    9.68831792286772
C         9.23490244544036   -1.18280976542709    8.27563077851222
H        10.00502587043260   -1.91133165161201    8.07786909623627
C         9.24834199045689    0.03589375034099    7.64766419925181
H        10.01681537120151    0.30626945084455    6.94219225999351
C         8.24423204593245    0.99103404246500    7.88388479945949

