47
CSD_code = DOHNET | q = 0 | S = 0 | Stoichiometry = C18H26NPPt | MND = 4
Pt        5.29106648230269    2.59430399528005    1.82853928557944
N         7.34065366953221    2.83331263801505    2.99419513993828
C         8.48777329875510    2.15160779062239    2.40724686166624
H         8.73975299803929    2.61300391682528    1.45282408185744
H         8.24644179410617    1.10633488094774    2.23148249119705
H         9.36598188352631    2.20391682837789    3.06722093829957
C         6.96430905187635    2.17474347202942    4.24237757971270
H         6.02642822494934    2.58498929132317    4.61924403448424
H         7.74336100075065    2.29416548185037    5.01051185195440
H         6.81617796306702    1.11133615213703    4.06140673565274
C         7.71261536877686    4.22906770588347    3.24122571522236
H         8.52105011007884    4.27296942390629    3.99345654070463
H         8.10546121718858    4.63751180910573    2.30376955101566
C         6.54319367682533    5.09881823085393    3.68811777853274
H         6.84873554431545    6.14822941193395    3.71555664224069
H         6.20635524258657    4.81026097071436    4.68554583514648
P         5.17146236740003    4.83729241447546    2.46680508108700
C         3.91038687457071    6.04094249797700    2.99896967247869
C         3.71843728804606    6.41935728803835    4.32304530151449
H         4.37353729084547    6.04803754304933    5.09788764211120
C         2.68883417487759    7.28067082656113    4.65948472310531
H         2.55401111052340    7.57757856688441    5.68979604822396
C         1.83182357726532    7.75982148802158    3.68361047283097
H         1.03017870040637    8.43251447326367    3.95046270228054
C         2.00058108987156    7.36705023541328    2.36496874979598
H         1.32785403564711    7.73030521539251    1.60177627593824
C         3.02728132189557    6.50809258795111    2.02661445123070
H         3.16168344297363    6.19474211320901    0.99970150656434
C         5.89941335517424    5.73141946129750    1.05036296537185
C         6.11146065446372    7.10593828930410    1.05388015121498
H         5.79367182223454    7.69904841649124    1.90127287481881
C         6.71570794469390    7.71348424384278   -0.03125554168112
H         6.87816849278494    8.78185251711714   -0.02786272344915
C         7.11276079679491    6.95628686289596   -1.12262663091654
H         7.58473572187506    7.43691936070397   -1.96718040181735
C         6.90024301472003    5.58742664822884   -1.13248302763199
H         7.20415568646156    4.99837539499891   -1.98539994749414
C         6.29417929499728    4.97682379812222   -0.04911984241156
H         6.10436293932596    3.89947964491571   -0.03756898085915
C         3.42764486861287    2.47234269707310    1.00500673319755
H         3.18869518518012    3.43296875285420    0.53512122954096
H         2.72499178843693    2.31361955775817    1.83256203617895
H         3.27237486856540    1.68529408450344    0.26793115230109
C         5.72887263574434    0.72003332228362    1.14470768306999
H         6.07641059135982    0.09416106707530    1.97737591309379
H         6.55205653429987    0.79300758615450    0.41976465773540
H         4.92806500327068    0.16294104434136    0.65546800938079

