44
CSD_code = DOHNAP | q = 0 | S = 0 | Stoichiometry = C18H20Se5W | MND = 10
W        -0.04876982606978    1.94141916843856    3.27589357874920
Se       -1.00625458091290    2.66333784955815    5.57469484502994
C        -0.83856465356596    0.86837152134511    4.88957556484081
Se       -0.50266670317499   -0.33614053790904    2.32226377269373
C        -1.13067652059486   -0.31986792765620    5.42650653274772
Se       -0.73145847378538   -1.76592861419365    4.14301863874975
C        -1.64535379340964   -0.72911023629411    6.72589690885620
Se       -0.62590717295925    2.47463092570890    0.77823928416270
C        -1.54428887470973   -2.06022669283049    7.13331804116739
H        -1.08342512296642   -2.78292252331965    6.46591954292696
Se       -1.77926240287169    3.52575892842667    2.52219437153557
C        -2.01764351574717   -2.46044489814454    8.36556416621854
H        -1.92936979404222   -3.49467204445252    8.66325308653831
C        -2.60798985356959   -1.53788258086330    9.21523243075534
H        -2.98269226605153   -1.85044878239309   10.17829982718566
C        -2.71927047437214   -0.21553424486649    8.81926254433114
H        -3.18376461862443    0.50868263964096    9.47131364605191
C        -2.24306358246924    0.19081344151671    7.58787247870335
H        -2.34652106428975    1.22593814205537    7.29444914593389
C         2.17317829724720    1.08843035214600    3.58465705378200
C         2.13084397559570    1.81036315340978    2.35213610765172
C         1.85285302376838    3.18235345536729    2.66046335901011
C         1.72918555573433    3.29918588622665    4.07741258755300
C         1.94348382441784    2.00446507823324    4.64947478338468
C         2.63469121954969   -0.33055054507591    3.76101424180584
H         2.42339147280620   -0.93283479731527    2.87744037216145
H         2.15555632525124   -0.79851144986760    4.62284785418601
H         3.71307354664112   -0.34816399892675    3.92830655292876
C         2.53915238422677    1.24193968960833    1.02223518814601
H         2.26449254914410    1.90459195198814    0.20206702362095
H         2.06419378279827    0.27402378188819    0.84087080584562
H         3.61955520438597    1.09391622837075    0.99719965057652
C         1.92652501361181    4.36616622211710    1.73233802275925
H         1.98697697966032    4.05363159250361    0.69191235763634
H         2.81333068047314    4.95798698465225    1.96474991161264
H         1.05409447729521    5.01795465819177    1.83590777609391
C         1.63709395778597    4.61573462609510    4.80005427418920
H         1.33406530653309    4.48329945929887    5.83787001505195
H         0.91650576077896    5.28149829989938    4.31887657673690
H         2.60931448625546    5.11155477694805    4.79101432180160
C         2.11653939885608    1.66852612253166    6.10334839752770
H         1.79618030394330    2.48919250178396    6.74154136628860
H         3.16778462174109    1.46319841412815    6.30980795020067
H         1.54018114568389    0.78237402204127    6.38098504223416

