51
CSD_code = DOHNIX | q = 0 | S = 0 | Stoichiometry = C22H25INPPt | MND = 4
Pt        2.61537066919529    6.22273492979766    9.16328488384768
I         3.27870477230525    4.04535087130755    7.96619670295306
P         1.95871336783920    8.24716490932373    9.87910669240616
C         1.87074721915829    8.50185492163972   11.67644814526760
C         2.61138839870080    7.64011416828912   12.47836360869527
H         3.19708729224320    6.85840092942441   12.00426722823799
C         2.58914606301176    7.78110605356836   13.85381662696000
H         3.16542763887995    7.11274490861150   14.47617684912581
C         1.82133541746175    8.78014815261211   14.43084082635879
H         1.80062141962259    8.89167970525356   15.50474933866344
C         1.07371295032350    9.63429167124050   13.63464893079124
H         0.47235661012649   10.40811607386844   14.08918291789579
C         1.09379942289406    9.49841524920637   12.25835453191161
H         0.50673135280394   10.15779569564788   11.63276658021146
C         2.95000971855434    9.64026786336771    9.26472667012490
C         3.38097297075244   10.70909002758144   10.03854051374496
H         3.12773160811883   10.75865921467181   11.08839326895212
C         4.14577974373398   11.70863468941820    9.45998613523665
H         4.48361826871495   12.53933963334958   10.06227523006661
C         4.48127752377691   11.64450696994774    8.11820030687667
H         5.07945589276850   12.42672331032856    7.67498212392226
C         4.06033049719947   10.57253055763857    7.34497431365105
H         4.33152712337390   10.51733038629259    6.30127281861111
C         3.30216339974973    9.57135682000519    7.91801070316824
H         2.98026662063951    8.71301966848239    7.33711497470830
C         0.28144990988501    8.69814257697094    9.32649005616073
C         0.01293125357982    9.89100005484378    8.66349003054667
H         0.80821125286644   10.60353508203715    8.49740030581715
C        -1.26635524660701   10.17466938228277    8.22009003028304
H        -1.46375337476455   11.10671220481597    7.71189806456303
C        -2.28751961211946    9.26414527425968    8.42797975157030
H        -3.28698236675976    9.47909581280464    8.08109899742364
C        -2.02491457166552    8.07182953297879    9.08059622725328
H        -2.82444230545238    7.36183065263812    9.24012413235157
C        -0.74763320237173    7.77434582651409    9.53243261732212
C        -0.47952343837983    6.48312835457372   10.25213486754398
H         0.04154501364555    6.69815113272328   11.19375101762812
H        -1.44530362083894    6.01177144957501   10.50259276614303
N         0.33861638380772    5.53088262238791    9.48741135142780
C        -0.33979673452523    5.19529495991286    8.23934332652781
H        -1.34116146044900    4.78355575289481    8.42646000267194
H         0.24116741809235    4.45601655762074    7.69099676547882
H        -0.43825359106225    6.08867979937303    7.62196477205384
C         0.49177186527012    4.32953836086583   10.30783847209137
H        -0.48392003401976    3.94761143905895   10.63998485984236
H         1.09525226833533    4.55898334116570   11.18939958130296
H         0.98657032741944    3.54624556363337    9.73842558941730
C         4.59245054609611    6.77502561387161    9.28259708864849
H         4.75161601476544    7.71819519998806    9.81250733515447
H         5.01065194591900    6.86461839125346    8.27785856038683
H         5.12634939737823    5.97721768008464    9.80895250799695

