57
CSD_code = DOHQUM | q = 0 | S = 0 | Stoichiometry = C32H20FeO4 | MND = 7
Fe       -1.91587782643510    1.74329568951795   28.92609994581946
O        -2.08617692844633    5.19874392505825   29.78039322764085
O         0.34437464730427    0.08920121060475   28.14272458956916
O        -0.97055223296816    2.30243646693422   31.65610769226375
O        -3.28602601154580   -0.75872912757168   29.51437999224510
C        -2.32366721108183    4.26298018006302   29.04575601655773
C        -1.45615082805538    3.69088098980797   27.97212851715078
C        -2.28598464368290    2.93329306406983   27.08142503444957
C        -3.54909535771514    2.72089770401734   27.73045955685031
C        -3.51597163998581    3.36186613368593   29.00899883560070
C        -0.17917935034464    4.33061056293347   27.61963439273026
C        -0.04774829587707    5.04751952036535   26.43245941428419
H        -0.88503540556037    5.11969349823196   25.75351089888822
C         1.14469645708904    5.67786743487269   26.12945968326005
H         1.23600478825770    6.23036121775598   25.20564852834629
C         2.21463464438943    5.60863559518032   27.00567506791844
H         3.14401848337432    6.10344968605600   26.76584063170453
C         2.08657393998482    4.90794041607905   28.19371825491818
H         2.91574866915301    4.85566425374023   28.88385261463290
C         0.89807689573414    4.27242917212603   28.49845352292526
H         0.79412959966612    3.71462957650147   29.41954153132550
C        -1.98470095758350    2.65429248179901   25.67114029903949
C        -2.92469576865440    2.95739286695217   24.68770122345184
H        -3.87846491197244    3.37888841490459   24.96858331362636
C        -2.63322394546750    2.74079173612476   23.35352063972537
H        -3.37023026682401    2.98067304957179   22.60150044906513
C        -1.40385572811935    2.22393511081756   22.98205029218979
H        -1.17994194513850    2.05414662198432   21.93962177893045
C        -0.46001988460035    1.93001234372877   23.95310114803259
H         0.50240319009348    1.53099651956857   23.66972791507735
C        -0.74611261127493    2.14438308209965   25.28716037910922
H        -0.01257430539382    1.91051933279916   26.04497301895424
C        -4.72386731504210    2.11053717270213   27.09197074201394
C        -5.94449860774165    2.78250292361911   27.09750371009818
H        -6.02366499312993    3.74237139556281   27.58628453999673
C        -7.04500906295503    2.22986796409548   26.46885451713293
H        -7.98643713569905    2.75870654307072   26.47917721870184
C        -6.94227925522290    1.00609833002767   25.82912599172946
H        -7.80459341540028    0.57534579044020   25.34283867606230
C        -5.72979775849992    0.33518270568076   25.81525289117019
H        -5.64481382775097   -0.61985199539849   25.31860991681556
C        -4.62661748759120    0.88263137016695   26.44072155744198
H        -3.68096242728749    0.35698302802237   26.44319599371400
C        -4.65647717599379    3.46886750891501   29.92310850278312
C        -4.94787209445866    4.67797010395273   30.55341068026622
H        -4.31304461902367    5.53274086699664   30.38242646741032
C        -6.04142680401780    4.77826329050909   31.39421719816902
H        -6.25818677762715    5.72033334006080   31.87596580471340
C        -6.85405842500046    3.68090340528613   31.62154147875775
H        -7.70676409038892    3.76313141036789   32.27909706788277
C        -6.56200041021211    2.47066854310781   31.01111146198302
H        -7.18430234004955    1.60708397814545   31.19478407872962
C        -5.47115943699463    2.36271089082436   30.17296732906143
H        -5.23196995541845    1.41254958926460   29.71506555606158
C        -0.54471621958896    0.76547992240055   28.39463626949295
C        -1.33887511173658    2.13779114190218   30.59023336203288
C        -2.78708051148793    0.24113204989643   29.26595058149616

