37
CSD_code = DOHQUO | q = 0 | S = 0 | Stoichiometry = C12H19CdI2N3 | MND = 5
Cd        0.07874122796546    3.90635136996862    3.10653541415237
I         1.44670693295579    2.68029983579966    1.14951768250703
I         0.41634396118630    4.75207627987063    5.65869014841605
N        -1.26066956334868    1.93753140496802    3.85866035615907
N        -0.44814012361956    6.25324187866607    2.07756865398433
C        -2.51008414494214    2.26982917658425    4.20026563881115
C        -0.75301108393455    0.80520035920907    4.30759051746346
H         0.26145898082866    0.58012690462072    3.99697888214671
C        -3.29047010852288    1.45983257262374    5.02336953551969
H        -4.29341164227572    1.75924581955503    5.28683370396613
C        -1.45944644832567   -0.06487157600981    5.12985983784887
H        -1.00241493363219   -0.97808494133611    5.47550164869758
C        -2.75154112483683    0.27450193428437    5.49642740893507
H        -3.33023264933028   -0.37048407807876    6.14047371721994
C        -3.02690534159803    3.53204358260415    3.67992092368580
H        -4.04167449381084    3.81184443611443    3.98882162637286
N        -2.33067702889501    4.25357793999962    2.91027774982214
C        -1.75953449022061    6.59558525158261    2.62939018879673
H        -2.14645663163808    7.53925538904343    2.21632029896609
H        -1.63813608441876    6.73170439719623    3.70929806664863
C        -2.81631825751956    5.50220491257221    2.41434293838730
H        -3.75464811767106    5.80675606745083    2.90373776948608
H        -3.01078344540559    5.37896101878633    1.34345178153668
C        -0.46142859989106    6.08704602717124    0.61598874039814
H        -1.07695815356306    5.21312480640619    0.38117840536280
H         0.55752214017848    5.84580821936994    0.30826459173913
C        -0.95363751018892    7.27688614920994   -0.21100122981095
H        -2.00323913368863    7.49533213443354   -0.02549713492605
H        -0.84308724424004    7.03492317089481   -1.26485911023125
H        -0.36985211328159    8.17162634532068   -0.00992558386620
C         0.53566329425960    7.25093715673667    2.52440140561024
H         0.32585241457251    8.23633997335714    2.08194958421811
H         0.42559535413511    7.35066150261066    3.60846717862462
C         1.97896466739614    6.85653894852194    2.23342180809738
H         2.18490004171758    5.84839844206578    2.60283014819061
H         2.64302578371236    7.54556834156616    2.74997794606804
H         2.21208366986980    6.89657884626322    1.17226876101222

