88
CSD_code = DOHTOM | q = 0 | S = 0 | Stoichiometry = C33H48MnNO3P2 | MND = 6
Mn       12.07772295376925    6.24448106527541    5.94271842706936
P        12.55297508454598    4.08854887343476    5.28297660539112
P        10.89828883044429    8.19428974153837    6.28372551575780
O        12.96282081343169    7.23874191776913    3.33794130548767
N        10.29275432118021    5.69124903914527    5.25999252207837
O        14.65469625943829    7.00093693392349    7.10884992274227
O        10.49930353515643    5.07262011409223    8.10031482186271
C         9.99123387682354    4.45593228120102    4.78495454543851
C        10.96494996582914    3.50156294782879    4.70784593713915
H        10.79585827659414    2.50064581342310    4.34323712514968
C        11.34188184385477    9.65400814121287    5.21472189250628
H        11.36307483220526    9.21760881255823    4.20366534897368
C        10.70480224532147    8.94758144578500    7.98142744802595
H        10.56753145767068   10.02789319820356    7.84560460403296
C         9.18138154748257    6.47055879259796    5.27015885616816
C        12.60699038173061    6.84515630415130    4.35887607065747
C         8.08187730159385    5.67104241697371    4.74139345191971
H         7.07427409089187    6.02552177372696    4.62608105072961
C         9.49416340127486    8.39021903738132    8.72932132502737
H         8.57922416910566    8.58271218972760    8.16477161301136
H         9.59613478329649    7.30900694634299    8.84127714107144
C        13.65936578913402    3.87911819864523    3.79897468265524
H        13.22022038844880    4.57564403637898    3.06746386610769
C         8.57198310168391    4.45133823519878    4.44821586415471
H         8.04669592902806    3.60568723662678    4.04426864969825
C        15.08601687008292    4.33004802709105    4.10409103942573
H        15.06711404021578    5.31991942531724    4.57305311361503
H        15.54952411013454    3.63097789683073    4.80456071191137
C        13.66361521298913    2.48712676323370    3.17015375079340
H        14.10856429981573    1.75894870788068    3.85153070571397
H        12.64381113863204    2.16668065897530    2.94813490965559
C        10.65842485126041    8.79649001930152   10.91752707429277
H        10.79114845785645    7.72396835993661   11.07564440758358
H        10.57217413327408    9.27225885528903   11.89667012052003
C        14.48329148060154    2.51989868856460    1.88051243451066
H        14.49890987597712    1.52481387063670    1.43005990432138
H        14.01020915221743    3.20154757424707    1.16983459686133
C        13.19472681918110    2.80697252417621    6.47997992249316
H        13.78941579391734    2.08874311391735    5.90128047917792
C         9.38622744406375    9.03346200142522   10.10999408069538
H         9.22386880379170   10.10872661884072    9.99650844084209
H         8.52517661225141    8.62020960526456   10.63965218898230
C        15.90514384237926    4.36466307698086    2.81694162591848
H        15.47107830854035    5.09683689196551    2.13251833167601
H        16.92806907351736    4.67676557988403    3.03662372300440
C        11.97840823228793    8.70482750920124    8.79270676107216
H        12.12648350297142    7.62541004357638    8.90496563064508
H        12.84702828213972    9.09809329422184    8.25899101554396
C        13.62811788259798    6.69283514586574    6.67122414993417
C         9.25535073990273    7.75321337807074    5.73299579154605
H         8.41353460632656    8.42650612250630    5.77079396243480
C        11.21472567024975    5.55221562308913    7.33971345143501
C        10.33001525351623   10.79820001307900    5.20547161721980
H         9.33328531854241   10.42322595091244    4.96484211322402
H        10.28551901826372   11.27975332763487    6.18455721396148
C        12.73656110314889   10.17994651828122    5.54660031904544
H        12.72639148063379   10.64750587673764    6.53425653530814
H        13.44815821587442    9.34739292671704    5.57101071348688
C        15.90930328666534    2.98813924043331    2.15746490480963
H        16.47434274655902    3.02401840988633    1.22391416550738
H        16.40327122104709    2.27212967314728    2.81902645885503
C        11.86887700128604    9.34883128619445   10.17154921278896
H        12.78029127274306    9.15564582502138   10.74043740925792
H        11.76562603214571   10.43175154526894   10.06228866998329
C        12.06780158856474    2.05359659631623    7.18567060235325
H        11.44257031223503    2.75829549734958    7.73746031187157
H        11.43475704919045    1.54750160883593    6.45357386127661
C        10.75302593510356   11.83556332958489    4.16565837820219
H        10.74249383404822   11.37728336897034    3.17400342139814
H        10.03867680729937   12.66201836633799    4.15995215783018
C        14.09802185930380    3.48458105736629    7.51157631849559
H        13.50847070623609    4.21916349350421    8.07056358527824
H        14.90273271292402    4.02756192953630    7.00983582394015
C        13.16103071865159   11.21476566968447    4.50840039803335
H        14.15384418581898   11.59838537522029    4.75166947744065
H        13.21678638904695   10.73930920684902    3.52668315975722
C        13.55278259578770    1.70083272229921    9.18061990155970
H        13.96971716115881    0.95321836060976    9.85865009677882
H        12.96375146799433    2.40243733730757    9.77532892507788
C        12.64799285788017    1.02589117224177    8.15469977665282
H        11.83510914349437    0.50125926314401    8.66134728978768
H        13.22499370930848    0.28549847689593    7.59406632788644
C        14.67680973669369    2.45610524499969    8.47856113268653
H        15.30242555399236    1.74816630644835    7.92838001922634
H        15.30786795560509    2.95835418709079    9.21416884794083
C        12.15433958770352   12.36123707048215    4.46476765690288
H        12.14994064351473   12.87494661324852    5.42936275208401
H        12.44775112090381   13.08592228294067    3.70263952664096

