72
CSD_code = DOHTIG | q = 0 | S = 0 | Stoichiometry = C24H42MnNO2P2 | MND = 5
Mn       10.43799579902284    7.54745260829570    7.84810929889489
P        10.41998712985725    8.66919983428722    9.84456493008737
P        11.33759239028110    6.35095595676565    6.06565248999459
O         9.01289483007812    9.57518445918551    6.29387468021348
O         7.84374983409883    6.24602198987735    8.24277728394610
N        11.84342280912369    6.61839727427955    8.77615680587477
C         9.59049026405147    8.77260614047389    6.90570215489333
C        12.86545990386766    5.89672881832792    8.21823627845548
C         8.84634054070845    9.26195774992290   10.72551455849600
C         8.88204811475264    6.74513332554443    8.07006376041582
C        11.72012326326107   10.05695886765297    9.79267436237343
C        12.08915092534196    6.65898624168524   10.12534435169257
C         8.10278667974309    8.01126042052970   11.20986032031392
H         8.11301802373158    7.23284299720735   10.44841365543434
H         7.06340922104926    8.26463082254887   11.41239778091410
H         8.53233497895545    7.62084899394744   12.13007683631662
C        11.13741112797402    7.41933974552389   10.99066360947577
H        11.61898198106930    7.85777200763829   11.86788472000916
H        10.32645612291396    6.76372366168581   11.32339029826818
C        11.08857792241429   11.29644810080403    9.15556693403876
H        10.54744697734240   11.02339255796519    8.24869452085434
H        11.86661321515267   12.01075056909558    8.88472176268083
H        10.40468361732123   11.79622159393510    9.83623196124687
C        12.82054369723964    9.55604521012455    8.84930384558620
H        13.36284160024267    8.71523213400416    9.28152945706164
H        13.53861846774446   10.35390096512286    8.65455755281556
H        12.39126507797753    9.25075324594301    7.88646515502438
C        13.74014057899757    5.48080464083127    9.19168216304776
H        14.63469884171234    4.90318115573676    9.04699284251453
C         9.08510128160843   10.17107544037664   11.92856696918227
H         9.77379148966596    9.71096589469293   12.63511188658479
H         8.13776216374328   10.32990311000110   12.44358980164368
H         9.46616582026384   11.14571730388770   11.63664494321860
C         7.96355291264253    9.95455477692714    9.68601171607830
H         8.42387527149906   10.85474990774682    9.29062017798753
H         7.01030334962948   10.23184375058239   10.13384146597777
H         7.77065372493360    9.27268617991935    8.85641113729194
C        13.23879332397642    5.97081007723616   10.42065660118771
H        13.67541480177188    5.83448253564830   11.39302296361389
C        12.37045056290468   10.41095804570268   11.12892448257494
H        11.64925555965289   10.73750800366042   11.87057464911697
H        13.07610485087140   11.22656870713120   10.96785887674320
H        12.93115238393948    9.56876402685922   11.52932626473559
C        11.83997385889569    7.25877003502877    4.47646962191939
C        10.46583728148600    4.72261240050843    5.65086633353040
C        12.96323638082682    5.78893560588815    6.72980812864909
H        13.21546710004690    4.77677344463714    6.39932159081757
H        13.74824920376303    6.46438214112271    6.36501752478152
C        10.42884494520489    3.95840806185532    6.97980544899182
H        11.42330861596256    3.65432124675735    7.29993074800776
H         9.81952484765488    3.06175729993408    6.87596260425917
H         9.98923217273539    4.57828172086327    7.76374389136005
C        12.39421849068097    8.60644443078253    4.95519108554008
H        11.62591160127378    9.16231580875878    5.49552993382759
H        12.70462450832631    9.20976216163404    4.10262653008116
H        13.26266553668604    8.47807293084269    5.60248985198166
C         9.02936450930089    5.02381672797851    5.21477208908029
H         8.60728734541547    5.82872701741399    5.81801477772704
H         8.40983599650593    4.13801502141857    5.34348760138726
H         8.97920734662723    5.31650171423611    4.17025280177873
C        10.59418255974665    7.52160848149280    3.63158922714965
H        10.29423219926675    6.63099896887719    3.08603789227967
H        10.79686823390468    8.30602353681316    2.90323422670841
H         9.76625162793042    7.84485667429887    4.26241296286183
C        11.15168919095994    3.85710762829325    4.59579051887838
H        11.02077692710041    4.26785020805482    3.59792464955714
H        10.69708028992489    2.86677891529602    4.60384501426190
H        12.21505417043984    3.73424119950447    4.79122240473967
C        12.91000500601669    6.56420125002392    3.63421064629804
H        13.81212703483728    6.35908316295508    4.20588627842577
H        13.18494069201270    7.22088511532202    2.80854079312722
H        12.55364089287930    5.63244723971843    3.20914851508239

