44
CSD_code = DOJCOX | q = -1 | S = 0 | Stoichiometry = C12H20ClCrN2O8(1-) | MND = 5
Cr        5.96856777681989    6.92809674421065    6.73940392200466
Cl        7.46524372986094    6.63452443236355    5.07402457575003
O         5.02824476413459    8.67704958237986    6.64263575432773
O         3.62467716729216    9.82538133180032    5.34714173543906
O         1.65094504195650    9.75086020154296    3.40148788975601
O         3.76970577061211    9.55091527604629    2.70981796291720
H         3.64526145896979   10.47877878796227    2.46675291837042
O         5.82366037078507    5.41305079016664    8.01606559550642
O         6.99069683583041    4.32549386224839    9.57294380944538
O         9.72290010714319    3.92465769357068    9.45810804443478
O         8.89725403858235    4.49427237925809   11.45758889566057
H         8.99467167294574    3.54626395254820   11.62483548331521
N         4.34301122285250    6.38652938040911    5.51987799957880
N         7.44730091847040    7.49782311770770    8.12783380741706
C         4.26421784566755    8.81611263987467    5.64471625232612
C         4.15762969004897    7.58729456991443    4.70742846826145
H         5.00694951103175    7.64342902330596    4.01355532418511
C         2.85428951687674    7.71805567539084    3.91138725354005
H         2.86755410659067    7.06581191906173    3.03561990295407
H         1.98326627499029    7.49093746503695    4.52509648690350
C         2.69386051220974    9.14346287020903    3.41800798002434
C         3.23045076477501    6.14719561753286    6.43065580127818
H         3.55176848076731    5.41531458762866    7.16990149946063
H         2.34193027858964    5.76181752119650    5.91364623925373
H         2.97111241289940    7.07376599640185    6.94251419225708
C         4.57399763908506    5.20110151580946    4.71216455844602
H         5.43241869891931    5.36956502398150    4.06566720901297
H         3.70005911658591    4.93477727873637    4.10308468948337
H         4.80807548915537    4.37549226152723    5.38229583447102
C         6.84300534346218    5.21781467543785    8.73796304448717
C         8.01357143204937    6.21023886034019    8.52288076655593
H         8.59856688647469    5.83159000947970    7.67364550912127
C         8.89170220542468    6.17441367539897    9.78194063764828
H         9.85555943735526    6.65074231766717    9.59191543396963
H         8.39673721038093    6.64999286188260   10.62730038562661
C         9.14489920433384    4.72590030848383   10.14962680855037
C         6.72636509060534    8.14738187267011    9.21550645294440
H         6.12295166860929    8.94758332259655    8.79023776658804
H         7.40213863024313    8.57434429281892    9.96828639540278
H         6.06498264612819    7.42712647916735    9.69666685038257
C         8.44941481230111    8.40680638030629    7.59822289472381
H         8.95716394412245    7.93322021660068    6.76101567426596
H         9.18625681405783    8.70307020164948    8.35655056411401
H         7.93896345997907    9.29504302769292    7.22948072982623

