37
CSD_code = DOJGEO | q = 0 | S = 0 | Stoichiometry = C17H15MoNOS2 | MND = 8
Mo       14.05861779680048    1.25555613769563    2.66750022352850
S        13.41559624753133    1.22186746398923    4.92806630416506
S        12.10357759446735    1.73414973781806    1.42622356041473
O        14.76478445150133    4.07435021826316    2.70519684820726
N        14.41105404989046    2.95393892477916    2.71080476208786
C        13.22618806249583    2.90041526475008    5.45175815810920
C        13.92537818055692    3.35804084907796    6.55889730591019
C        13.77069409278310    4.67139442242186    6.96453917685431
C        12.91321294022134    5.51563569069021    6.27937465223579
C        12.20177496060761    5.04559996105129    5.18681420135120
C        12.35084262333216    3.73632510076655    4.76987563702964
C        11.33374613467844    0.14218747130043    1.40616108226709
C        11.02277295840553   -0.49364644698515    2.60345038046188
C        10.41423304680178   -1.73575792659031    2.58165761817812
C        10.11302174471113   -2.34433596471166    1.37364995090365
C        10.40409981808609   -1.69900181499608    0.18221829204060
C        11.00553061632969   -0.45388777071038    0.19363701810282
C        16.12975148721897    0.22396234527571    2.54441636322949
C        15.25876111422729   -0.70335165999164    3.16586692892333
C        14.26941173913447   -1.07553545669916    2.23488688439005
C        14.53713524438991   -0.40299577799009    1.02701871752013
C        15.67550518709848    0.41286612278038    1.21131016782388
H        14.59275598976584    2.68906682891736    7.08158705369399
H        14.32465780474365    5.03521927593109    7.81706098836899
H        12.79852740998661    6.54127027189415    6.59620183349676
H        11.53060192972345    5.70084179377683    4.65271016181631
H        11.79797675295355    3.35747047282462    3.91540401360782
H        11.24190570691430   -0.00267117745735    3.54552342408163
H        10.17465275799143   -2.22826529763315    3.51245568406634
H         9.64323558495333   -3.31634133029537    1.36089847475576
H        10.15905666515160   -2.16594521538746   -0.76015418657168
H        11.22813176924882    0.06442384049910   -0.72752774641842
H        17.07564314023118    0.57052014557692    2.94347822761219
H        15.40334022023734   -1.14401603063704    4.14622501935196
H        13.53598283780460   -1.85785657314062    2.37217648979976
H        14.02614129108235   -0.56510599296006    0.08529219171681
H        16.21340004791069    0.93481209604136    0.42994413685770

