77
CSD_code = DOJJUK | q = 1 | S = 0 | Stoichiometry = C36H36N4Rh(1+) | MND = 4
C         4.91694604031793    5.86974838093131    4.22813525865865
C         4.74416006669863    4.03104041272166    2.14608858074450
C         7.11236130502637    5.12392306078449    1.19642741804178
C         7.24509282813793    6.65132490143555    3.35098928987069
N         4.37727466079555    6.32686019289187    5.15770582100714
N         4.03246494728687    3.16006512503267    1.83595749962165
N         7.87301395549815    5.12057917183509    0.31029868297243
N         8.01655128533482    7.40476545640619    3.79806174215488
Rh        5.97402421519530    5.38386360012856    2.71007580040071
C         3.81698152173487    6.92991065860013    6.23269837035121
C         3.21044868016667    2.14865096236070    1.47178602982970
C         8.82998547345171    5.21914267422461   -0.64215188179857
C         8.91845404395029    8.21687206527211    4.40286530794244
C         2.66173134138116    6.37938930518475    6.80507202516307
C         3.61548292268946    1.28265499074925    0.44588107632124
C         8.73662067765423    4.43294922269085   -1.79847568656291
C         9.69782349478629    7.68140390079048    5.44007885242050
C         2.11071796051228    7.02357894422787    7.90032420077892
H         1.22153593310406    6.61856906390670    8.35826090326279
C         2.76005507921168    0.25211366467177    0.09393778215238
H         3.04917346231878   -0.42856593036632   -0.69194213070768
C         9.73328247853861    4.56188862871795   -2.75165070132448
H         9.68376125106722    3.96716399214566   -3.65067420155743
C        10.60980864331314    8.51821985982708    6.06033606913368
H        11.22178521769955    8.13065053732925    6.86015230949505
C         2.68688682977024    8.17558644571144    8.40888246833800
H         2.24331122844682    8.66477787676460    9.26185896926547
C         1.54476720548574    0.08870879049192    0.73798490985076
H         0.89113330736696   -0.71968298587408    0.44996560713553
C        10.78505807613783    5.44266809133468   -2.56257321515398
H        11.55216287254840    5.53021231138281   -3.31592454455230
C        10.74141869531451    9.83989137744370    5.66600734687080
H        11.45704759435513   10.47712859935974    6.16140855327891
C         3.82917093376664    8.70423082033840    7.83088798117411
H         4.27119187362042    9.60203610679300    8.23482974169294
C         1.16204859579253    0.95455654206179    1.74915563060732
H         0.21328777995577    0.81824433258052    2.24487623983428
C        10.85873997529819    6.21420842041373   -1.41445441188128
H        11.68134702803903    6.89933737096428   -1.27793172145979
C         9.95988098254006   10.34825310479762    4.64369067436441
H        10.06658041315533   11.37951709247466    4.34430376451565
C         4.41739117646080    8.09501682170489    6.73524052903187
C         1.98488201274525    1.99867900271560    2.13659430469070
C         9.88642493352190    6.11982427644793   -0.43326421145209
C         9.03271970059350    9.54959364166259    3.99079408652745
C         2.06222879576714    5.13544702088076    6.23155384160013
H         1.74300536622168    5.30747662437149    5.20378206060253
H         1.20185059990457    4.82076189458493    6.81440264717533
H         2.79453488499577    4.32799028317452    6.22441262445296
C         4.93146282024584    1.49341808567781   -0.23201178635583
H         4.93771439809839    2.45342793000075   -0.74832248731102
H         5.11996790878071    0.70716992038923   -0.95693647799429
H         5.74113810426466    1.50210533761856    0.49835837740222
C         7.58721554671497    3.49270438859948   -1.97309200570580
H         7.59403003286802    2.73504339500477   -1.18959203691435
H         7.64130467178032    2.99588922012409   -2.93710669411597
H         6.64237663735433    4.03277735378767   -1.90984588176661
C         9.53300537653775    6.24953228524536    5.84188977407113
H         8.50200928136319    6.04170772314075    6.13111035248979
H        10.18306886783231    6.01021123520705    6.67805770574932
H         9.77752359656728    5.58654189311445    5.01122963297241
C         5.65599099556427    8.64037171594530    6.09716472421229
H         6.48830325902858    7.94980371016636    6.23715370585846
H         5.92538576669296    9.59607979439013    6.53699080832386
H         5.51032951947403    8.77424977693598    5.02499103695011
C         1.60746156666482    2.95040138764618    3.22637787130769
H         2.33843274649048    2.90795640580249    4.03390333673569
H         0.62866073651341    2.70596547787359    3.62795579022154
H         1.58709453808464    3.97287348835336    2.84793617430962
C         9.93540414639918    6.94006380143976    0.81700213656564
H         9.02067542764972    7.52403120881666    0.92407895039124
H        10.78592682325252    7.61538871453001    0.79980084787802
H        10.02015490076730    6.29539132927894    1.69272599806460
C         8.19742018102566   10.08998311884379    2.87284400795156
H         8.72088467472867    9.96687020986697    1.92386464789503
H         8.01599608891121   11.15201170582086    3.01523206092878
H         7.24145303865042    9.57460268106348    2.79951713514444

