77
CSD_code = DOJKAR | q = 1 | S = 0 | Stoichiometry = C36H36N4Rh(1+) | MND = 4
C         4.16070679447609    2.24215224453896   19.65337559865194
C         2.77846993613622    2.24499641768843   22.05474729952855
C         0.46236777846989    2.30323587898103   20.59890398222809
C         1.71624494509365    2.33462156406285   18.39006482984218
N         5.26097142640249    2.24126060408104   19.26481421925706
N         2.96258105084431    2.20378928296964   23.20640365255808
N        -0.70429207732784    2.29904889180903   20.65111536896405
N         1.15227052984377    2.39553252373057   17.36900773666723
Rh        2.32885051294237    2.28047011015817   20.19767625370039
C         6.50869583865125    2.23810831834374   18.74171478052569
C         3.06851991936855    2.16347778947148   24.55463017005643
C        -2.05542480242787    2.21137436719577   20.59253278840972
C         0.41173738378781    2.52780238256790   16.24157153468219
C         6.65289453281547    2.09349832927241   17.35377134397178
C         4.32215217359149    1.94187189166770   25.14069429093898
C        -2.83675987737409    3.06358197001564   21.38359116826306
C        -0.68889964109005    3.39850663557509   16.25395047295590
C         7.93610377602081    2.09440271271356   16.83374899481922
H         8.07445532449147    1.98388620513807   15.76921641762202
C         4.39110593399936    1.90422280144787   26.52354153452167
H         5.34445385286453    1.73493266141157   26.99996157593048
C        -4.21491460377635    2.95595199596679   21.28305807690269
H        -4.83817518563999    3.60263387807893   21.88113011919031
C        -1.43664220226914    3.50617283948419   15.09147209819861
H        -2.28657101608991    4.17099959563088   15.07601647609402
C         9.03650014133756    2.23599876794207   17.66315109645722
H        10.02870973231995    2.23519655691888   17.23983583623408
C         3.25448456542476    2.08042845796844   27.29506664461724
H         3.32784214316646    2.04794460789496   28.37082402420568
C        -4.79429632604867    2.03319765013016   20.42903441265874
H        -5.86883778702255    1.96292197966669   20.36500111467771
C        -1.10785700332006    2.77740111409851   13.96171406606728
H        -1.70372026431814    2.87689364477779   13.06805854315145
C         8.87338704397344    2.37922161243874   19.03106720558715
H         9.73739102760727    2.48987228635197   19.66800689581955
C         2.02380836450596    2.29751055332311   26.69719159912866
H         1.14443611357867    2.43295774430032   27.30792118673053
C        -4.00407595216429    1.19929154119697   19.65522937307422
H        -4.46436608503424    0.48310912242418   18.99207766244382
C        -0.01798971397476    1.92298778141286   13.97106817575468
H         0.23239836865360    1.35809353488198   13.08647308807418
C         7.60954807168013    2.38286879043382   19.59739585751545
C         1.90510657497501    2.34271703926562   25.31860041332530
C        -2.62214619200930    1.27000051799504   19.71808702679719
C         0.76227608855660    1.78224390444231   15.10655562901060
C         5.44125580169656    1.94108532548213   16.48992505122648
H         4.87969150534070    1.05192840786777   16.77948925358199
H         5.72681622109944    1.85136110854793   15.44574281611753
H         4.78220928643878    2.80297503549987   16.60355791984619
C         5.52977560085977    1.76178267165117   24.27754602538519
H         5.35978764455022    0.97653293888454   23.54111585885252
H         6.39530159999359    1.49876863332318   24.87798079491241
H         5.74862676917493    2.68394667693204   23.73885283719415
C        -2.19068296347803    4.04545794055249   22.30855991199824
H        -1.82378646751236    3.53314403036516   23.19842267542905
H        -2.90556189599019    4.80096662951494   22.62208142820512
H        -1.34362644120198    4.53675975906956   21.83103959496301
C        -1.05782305138799    4.17474951554261   17.47977344354056
H        -1.75305306877143    3.59960248761912   18.09373791046453
H        -1.55204164036091    5.10201661470576   17.20180099295732
H        -0.18411569284137    4.40905131764193   18.08683938588172
C         7.39669520337565    2.52865055073205   21.07034651563783
H         6.71750667396036    3.35568256352775   21.27844258373599
H         8.33911463543157    2.71157514907624   21.57785581997074
H         6.95254484828798    1.62035615877126   21.47823148168880
C         0.59461506527823    2.57747911838759   24.63649272231779
H         0.64717153868097    3.47242304356337   24.01494652182759
H        -0.19827682807377    2.70219584376744   25.36851907921612
H         0.34639813004222    1.73644141543652   23.98733186895780
C        -1.74925059357798    0.38719010002339   18.88258072685202
H        -1.26804008177727    0.96408003734287   18.09181095937652
H        -2.33730184237863   -0.39989469933318   18.41978812934818
H        -0.96243024388925   -0.06815272002336   19.48422277710920
C         1.95106192702660    0.87494813303049   15.13646946187349
H         2.86945481457721    1.46154802018514   15.10544038850825
H         1.94302665651914    0.20834373158132   14.27909062014323
H         1.96593567322864    0.27781536093822   16.04769380707099

