62
CSD_code = DOJROK | q = 1 | S = 0 | Stoichiometry = C18H34ClN6OPtS(1+) | MND = 4
Pt        9.38771225267480   11.25618922620170    9.13857798734392
Cl        7.47209388141881   12.38247248830777    8.61477536443247
S         8.96305492352852   10.18494146933276    7.19287425736709
N         9.94776715070911   12.44099864103986   10.68753315858124
N         8.02917458946232   13.35650535561120   11.57111418590780
N         9.69192472567248   14.77841852181261   10.75165722306718
N        11.16288332175612   10.36436752118814    9.60910949603792
N        10.88566880022210    8.11222886565173    9.29143731071759
N        12.70512441210341    9.20347176531287    8.28634312222931
C        11.32824476375907   12.34152018205494   10.91667197416959
C        11.97848347621898   11.22662753888149   10.34363718733741
C        13.30217212354592   10.96603128718104   10.68569377951817
H        13.78797041383536   10.07101596815163   10.33151945215976
C        13.99086035660547   11.82014872284675   11.53011621992164
H        15.01953292401092   11.60869141724246   11.77571825017136
C        13.35519456688920   12.91516196103509   12.08466001041140
H        13.88384418885764   13.56431939077416   12.76432671919269
C        12.02220536444282   13.16021619204803   11.80096687905029
H        11.51056659516757   13.96546864972003   12.30492488066100
C         9.22988243586628   13.53284686178133   10.99434568979447
C         7.67574937291660   12.04330604960802   12.06653412280856
H         7.29140272123553   11.40671789912587   11.26101969753204
H         6.90573254160651   12.15819861540579   12.82720823265116
H         8.55197515690442   11.56811266380452   12.50454033310995
C         6.90256446013348   14.23870789410341   11.34892651907944
H         6.56021356813344   14.67929980387762   12.28687407534524
H         6.08614695963196   13.66052504884208   10.91365866096548
H         7.16336496324082   15.02242350706999   10.64564184205484
C         9.39547070683190   15.92964197951381   11.57495206835295
H         8.85228592781032   15.62781372269413   12.46545721103588
H         8.81452972505376   16.67556428515528   11.02845638831983
H        10.33653732430226   16.39317617083374   11.88205634322447
C        10.65892796598246   15.00361707593410    9.70310133722265
H        11.68136466595735   15.05846388224877   10.08793590492790
H        10.41622893662313   15.94281584293137    9.20515006728717
H        10.60019306115829   14.19294056438743    8.97455531532596
C        11.59252280005224    9.23101920183802    9.04287301358906
C        13.14549420926522   10.39788421925817    7.60410279045293
H        12.32354733501645   11.11009373815195    7.54551535207471
H        13.44905304598537   10.12780651155760    6.59231891164724
H        13.98719159660775   10.87385119119776    8.11484305419927
C        13.56854542666669    8.05645651027299    8.12175166984678
H        13.33896329815676    7.29851153262439    8.86426690689283
H        14.60232259823901    8.37915621193616    8.26728211197224
H        13.48636481023527    7.62782337544358    7.12084400509301
C        10.78792338962741    6.98630864870305    8.38678387967151
H        11.18902990351707    7.25167579037841    7.41465853551775
H         9.73602716070894    6.73486177258274    8.24899407082577
H        11.30213612440111    6.10982772266604    8.78657070643845
C         9.89441361421806    8.14169133808096   10.34710926653726
H        10.27374440580793    8.71402907286276   11.19270918017569
H         9.69759104792796    7.12033637581926   10.66755433926284
H         8.95391068661804    8.60039203101617   10.01255131129570
O        10.00127017379595    9.25141332487535    6.77379693823986
C         8.75212769193707   11.34791145758249    5.81620910397928
H         9.64191716140250   11.96725005226780    5.75472233824758
H         7.87809910603356   11.96154120527536    5.99818103260754
H         8.64787604490090   10.76350959374252    4.90918128843180
C         7.36750220745576    9.32347907318888    7.07234102766434
H         7.25999953135926    8.93908621380043    6.06491282879143
H         6.58612557152761   10.03650624957554    7.30889621042939
H         7.35895173426786    8.50521055359550    7.78455885879335

