53
CSD_code = DOJROL | q = 0 | S = 0 | Stoichiometry = C18H30NNiO2P | MND = 4
C         3.30571833872327   12.55600826505028    1.28325692239477
C         4.39086290682647   12.59430927511606    2.37384885393723
H         5.35225765594190   12.49818244334904    1.85373377545886
C         4.13497364316494   11.35664917907770    3.24610816817213
H         3.24676840143997   11.55706858726543    3.87829507126673
H         4.99284207025928   11.17516678341606    3.90811790796006
C         4.38938440490929   13.89277588856010    3.17551246888384
H         3.47090635814514   13.98080387956605    3.75238845732268
H         4.43774133981630   14.73195656760428    2.48582116452544
H         5.23830601403825   13.93753448376006    3.85593847272302
C         1.35273722397064    9.03505203087076    0.28072687287779
H         1.21660302212107   10.10814698973025    0.22789852624253
C         0.49863112997972    8.15877560044335   -0.36816209339987
H        -0.33809596984843    8.53795292704467   -0.93210333273184
C         0.74136370254654    6.79851031991344   -0.27209321125010
H         0.09447628923618    6.08324017318222   -0.75789596278836
C         1.83864411205323    6.36972419516894    0.45576821120953
H         2.06751960089232    5.31790137318485    0.54235975121437
C         2.65176083771432    7.31073540963673    1.07507505899114
C         3.88280240187460    6.91257354921621    1.82836489042581
H         4.71756772029648    6.93960635208613    1.12129162769058
H         3.80577676251004    5.89943862962491    2.22789931647679
C         3.31335992972135    7.53971089429635    4.62788621544140
C         1.85833661381031    7.45259635784259    4.15536411716860
H         1.70583391436173    6.63278754979402    3.45621441338798
H         1.56751975556359    8.38816649839766    3.67040515484046
H         1.19680911191826    7.29620635561930    5.00614635628511
C         3.76850926081784    6.19100341483825    5.17366961586846
H         3.06546554447574    5.85837548936253    5.93672651719672
H         4.74852267264475    6.26348651868370    5.63775701446552
H         3.80043314745646    5.42802004734915    4.39881630324589
C         3.38355154285707    8.60482892350402    5.72354792318735
H         2.68812337612708    8.36033327384092    6.52529421985563
H         3.10770454734613    9.57449955247835    5.31211076945006
H         4.37754828499019    8.68057147348226    6.15275944740654
C         6.13381205812273    7.97192890940682    3.29404310082069
C         6.63500142325183    6.53017698085079    3.21631017777209
H         6.40589656649326    6.06680466804871    2.26051800337265
H         6.22086790310493    5.91399654699302    4.00819330845968
H         7.71887439050513    6.53103462099224    3.32737699469579
C         6.62026237493224    8.60370646627452    4.59785903645975
H         7.70447728242848    8.70587521318838    4.57698970028554
H         6.36222331003230    7.98669107212668    5.45498369674085
H         6.18933625468412    9.59320992191335    4.72966252946335
C         6.69245998520949    8.77723425884010    2.11446961966770
H         6.23949633310785    9.77204434538423    2.08635745028388
H         6.48661661337082    8.28778775956126    1.16382711902093
H         7.77139698221855    8.88907931219164    2.20440236067171
N         2.39574741981781    8.61907033994927    0.99250146953655
Ni        3.44565888087876    9.92294135056865    2.14811700336604
O         2.87196710362256   11.35687741525221    1.08516850522803
O         2.91826685021043   13.53149098369292    0.67348400849431
P         4.26237259930526    8.18985058240074    3.12858693025853

