53
CSD_code = DOJRUQ | q = 0 | S = 0 | Stoichiometry = C16H28Cl2N6Pt | MND = 4
Pt        8.28223752469304    7.60881177105298    3.93023470038249
Cl        8.00371481487698    9.70604341500029    3.09568108612224
Cl        6.56582235732062    6.91301783706912    2.61028877508284
N         8.47389203965835    5.80854709903251    4.93865252106406
N         7.74649018750756    4.14750506871176    3.51971734251644
N         6.62676500874789    4.48689204269153    5.54181828503652
N         9.68719995736621    8.16518115898267    5.34830329861812
N        10.77243789527575   10.02975688063691    4.54341727829729
N         9.56144989329134   10.18964909718841    6.53478881885331
C         9.02385813737387    6.02865816201317    6.19341035318377
C         9.12020658939707    5.03881333447796    7.16879480353552
H         8.69152767607772    4.06480284529698    6.98167533582260
C         9.79677524307547    5.27302470320621    8.35324645392059
H         9.85319580673507    4.49459656388286    9.09964358836962
C        10.42257831443159    6.48794292465303    8.56435129407678
H        10.97179877402898    6.66609214423295    9.47696257944353
C        10.37297943732516    7.47112529724326    7.59149394511666
H        10.92026958778638    8.39182891233495    7.73383089918166
C         9.66374774376443    7.27122943444114    6.40937853678521
C         7.61581149414882    4.83576349708918    4.67368535311019
C         8.92289495961872    4.40252943250124    2.71588703275131
H         8.83716082503683    5.36141523804212    2.18928537713612
H         9.02614226053230    3.59766557184641    1.99039312592925
H         9.80211114940766    4.43381071742615    3.35714816564346
C         6.60356229592128    3.68015093353669    2.76255088098032
H         5.68403390577267    3.87021238520795    3.30490105770975
H         6.69913704998775    2.61298052673136    2.54829863739248
H         6.54868024960174    4.23632630085506    1.82554476482679
C         6.14723341160985    3.13861143564142    5.71990086035725
H         6.73572547522718    2.45065961231265    5.11919603763853
H         5.09203230699539    3.04676937514999    5.44744124545874
H         6.25038830166753    2.85921279446854    6.77379036110262
C         6.09648431105456    5.46640020441554    6.45742912169640
H         6.55695205765181    5.40258593247376    7.44973151663022
H         5.02087276189428    5.30937258229476    6.55214574081654
H         6.26703151454646    6.46484111594301    6.05142522283956
C         9.98922116416638    9.44785219694459    5.47634988105595
C        10.32412058052414   11.25663001990737    7.13419187628114
H        11.30102002266714   11.32721606770377    6.66400464746264
H        10.46310288610469   11.04180263167630    8.19907139844547
H         9.80947125079472   12.21774099797682    7.04745401025126
C         8.34252777101584    9.83135545800276    7.21660801521473
H         7.70640640191973    9.26225868363105    6.53667007368442
H         7.81846520920570   10.74598616239925    7.49833630649064
H         8.52752165357333    9.23261565787389    8.11550706647170
C        11.37672294094471    9.17345087922817    3.54517404753457
H        11.78319053171400    8.28503106980435    4.02551155283122
H        12.17754710752161    9.72530632270392    3.05632010366750
H        10.63713754953372    8.86169511159537    2.79689786065324
C        10.57191752851856   11.39621403782548    4.10671924020653
H         9.80157280497542   11.87621041090954    4.69996631826341
H        10.22759981892031   11.38970766037207    3.07151168424913
H        11.50545345849042   11.95960028335850    4.17716151980549

