50
CSD_code = DOJSED | q = 0 | S = 0 | Stoichiometry = C25H16N3O5Re | MND = 6
C        -0.17557814767036    7.37390838390703    7.71389673871011
C         2.24802295596075    6.28619446524572    7.17708533749542
C         2.08267486779100    8.47417280635458    8.90454360826159
C         2.45238972190389    5.45435461963895   11.45762261603366
C         4.09275873961956    5.76536627387787   10.09582696090124
C         4.95579407134295    6.10371032663806    9.06234022685006
H         4.59328279746143    6.62117679405574    8.18828829422706
C         6.28480178923203    5.75855860033908    9.21321980973133
H         6.98365850470877    6.00505580703624    8.42852814889168
C         6.75217149272353    5.10711163669010   10.35254894285949
H         7.79974534640230    4.85859170023125   10.42622527404012
C         5.90708638069961    4.78170153194935   11.39929674362750
H         6.25905021457099    4.29050717950615   12.29162769199662
C         4.58027786436953    5.12764982190100   11.24592126166196
C         1.19785226090505    5.42203258613455   12.13287531390133
C         0.09123216422277    6.20657616388121   11.66715847820400
C        -1.09396057138166    6.15297362768322   12.45528762135817
H        -1.92867528029890    6.75087876713776   12.11966872429648
C        -1.18583171852289    5.37291162682310   13.57206857242562
H        -2.10909111810294    5.34780238051809   14.13414818846682
C        -0.09899587217032    4.60087144779894   14.00151648290739
H        -0.18540169070369    3.98782109722853   14.88570427022425
C         1.07357346873299    4.64406083323884   13.29692154754097
H         1.93071169439695    4.06965096930837   13.61904719802359
C         0.72492616615443    3.55009023979455    9.57949725684068
C        -1.45833146032987    3.53805419317581    9.84547086317030
H        -2.42212266967923    3.18567086615015   10.14689691869988
C        -1.07468737914863    4.67631429552241    9.20656285830040
H        -1.68134354989247    5.49062049925885    8.86180557619990
C         2.09583945518838    3.05638133887788    9.61031157736657
C         2.95152605187837    3.28932869093610    8.53518030592520
H         2.58469220382584    3.83133125824465    7.67717443827819
C         4.25158636236048    2.82175925379802    8.56886647659508
H         4.90817390324933    3.01230221237750    7.73427385182001
C         4.71053337253980    2.11840637878756    9.67025100142480
H         5.72896781154475    1.76254087287684    9.69914354388874
C         3.86184856626885    1.87523953209685   10.73838536336158
H         4.21789453294921    1.33114240928743   11.60049623999083
C         2.55899991760275    2.33540078498088   10.71101757957440
H         1.91044360396100    2.16872699607290   11.56032607075382
N         2.73572095094382    5.93856890226124   10.26146607049010
N         0.28035356400969    4.67938702040772    9.05024412259332
N        -0.31210715518638    2.83624041430862   10.07866306146980
H        -0.24366072535849    1.93756081543177   10.52723700146097
O        -1.06330517403594    7.77364833997640    7.10896347249328
O         2.78737023492148    6.03094583299571    6.18932370855473
O         2.55329428552741    9.51111327979427    9.02098639805068
O         0.10872820936837    6.93045210576983   10.62353530270011
O         3.53585076766198    4.94090580144508   12.09272622644939
Re        1.28655821748217    6.70342821824795    8.80862666091099

