110
CSD_code = DOKBAG | q = 1 | S = 0 | Stoichiometry = C52H50ClMoN2P4(1+) | MND = 6
Mo        1.79939717476810    3.44004947029887    4.44431314863469
P         2.81114184041833    2.29717986812634    2.51395853336044
P         1.07709822640250    5.39943755848237    3.16362960307034
P         3.18454637364930    2.73866317051411    6.29243817188088
P         0.90196379547858    4.78257575790409    6.19524329853523
Cl        3.66329684021308    4.98057369231309    4.53874461787077
N         0.59283406575035    2.19215126555035    4.53510338799770
N        -0.21836835105083    1.17327620345617    4.66586801001445
C         4.46430891938254    2.66770838612187    1.85037665943616
C         4.75401316818395    3.99933501653999    1.56270935699663
C         5.99431912343482    4.35316373733976    1.06674210960436
C         6.95804397124812    3.38015603871209    0.85684773571220
C         6.67597479113654    2.05438303942647    1.14441587997884
C         5.43629943768933    1.69307812966866    1.64178212688286
C         1.78651920800353    2.45053841222002    1.00946819511438
C         0.46544052088294    2.02180609461619    1.12739838058354
C        -0.39387144527676    2.09376794207003    0.04902010265658
C         0.06306944564182    2.57983107096177   -1.16716546542553
C         1.38075972059360    2.98181082731017   -1.29751480830257
C         2.24294482503795    2.92494099823484   -0.21424537322613
C         2.82805915178989    0.48110414765431    2.64572699034214
C         2.79686003900919   -0.32840973105488    1.51107919348777
C         2.81469611874052   -1.70402692011671    1.64509749405606
C         2.86456056654041   -2.28431981770563    2.90370166723216
C         2.90417579145105   -1.48377396103336    4.03310598801430
C         2.88741885090234   -0.10685893488176    3.90133467039202
C         2.58916747978141    1.24025860734979    7.14724219434285
C         3.36554822744704    0.10183224091117    7.34192286849774
C         2.81768272086347   -1.01520703901555    7.94923400701390
C         1.49422152906722   -1.01491479508458    8.35749450223173
C         0.70997438528126    0.10940147056123    8.15065029490464
C         1.25459722091146    1.22587720771153    7.54369391509546
C         1.87305261038973    6.17082869786841    1.72354518342196
C         1.39638910670819    5.85083621656127    0.45363703412123
C         1.99746869515740    6.38678259312404   -0.66937365794213
C         3.08393243354270    7.23661017950040   -0.53870245423937
C         3.56894605993526    7.54947886456069    0.72044940016118
C         2.97170996929398    7.01883268785185    1.85010667383098
C        -0.66544859166341    5.40988861158848    2.64031862380035
C        -1.42380450451449    4.25514281763915    2.77808486882503
C        -2.75842519619734    4.24464058126708    2.41040096824505
C        -3.34269047058747    5.39153590967337    1.90053350766137
C        -2.58749701776901    6.54454637426487    1.74765569819264
C        -1.25445587322247    6.55668184473706    2.11152423371609
C         4.97627524424356    2.45035374004191    6.25027572226909
C         5.61940429627842    2.33837151841310    5.02768599157451
C         6.98321273273538    2.11537268014121    4.96920850811041
C         7.70986363539508    1.99169200890490    6.14076540449627
C         7.06892824721230    2.07891181432668    7.36820496489442
C         5.70745090414642    2.30573672900903    7.42955524250327
C        -2.79800737506617    3.30651258600691    8.46723884244536
C        -2.78613500208487    3.42598139316123    7.08570037113683
C        -1.65114727136965    3.88374717361364    6.44491925132186
C        -0.51815956625039    4.23444881488002    7.17823472185904
C        -0.53438286080246    4.10813893645608    8.56321935370715
C        -1.67384367056023    3.64681772984251    9.20050098963339
C         1.04727356072624    6.82180719294732    4.35632757803706
C         0.28735092475591    6.41900241151012    5.61061885215771
C         2.23060859009798    5.21706234769430    7.37785261305918
C         3.06755946644377    3.98063218831812    7.69849843456151
H         0.05363129922243    0.48756693025799    5.36990695100655
H        -1.21627326290354    1.37491378794693    4.64620012872891
H         3.99933926055536    4.75578483159503    1.72824617661612
H         6.20686845918361    5.38856220566605    0.84607200974646
H         7.92859539313441    3.65441321739369    0.47215784068597
H         7.42611089744777    1.29451765903646    0.98161868327158
H         5.23047814401870    0.65858807322013    1.87752183349730
H         0.13419483583024    1.60156651866793    2.06997093456415
H        -1.41712105319434    1.76292545564611    0.14819735872590
H        -0.60526739967065    2.63300731871508   -2.01314360924159
H         1.74557890499074    3.34024629564771   -2.24848412285115
H         3.26851841886420    3.24416667166445   -0.33114732123274
H         2.76006209904610    0.12040594817068    0.52801659508734
H         2.79023086808595   -2.32776188670053    0.76411947448509
H         2.87458325351603   -3.35917664839887    3.00129332350202
H         2.94746373385411   -1.92844829715239    5.01682490948968
H         2.92321631904897    0.53116581592469    4.77694331714924
H         4.39710891081852    0.08575255675738    7.01996419168655
H         3.43045999197120   -1.89012178289160    8.10682052257964
H         1.07388237073623   -1.88734357981505    8.83349651092188
H        -0.32420347130915    0.11763517258021    8.46396300038412
H         0.64865991317139    2.10863136262582    7.37705136598135
H         0.54580602944637    5.18978067037217    0.35360004888390
H         1.61436056731067    6.14183447980789   -1.64832753192583
H         3.55145967456944    7.65539209156011   -1.41671753056293
H         4.41619313996508    8.21052161868740    0.82589710064758
H         3.37443350304509    7.25606025304565    2.82404842581183
H        -0.94133683282698    3.36578775512343    3.16182010260640
H        -3.34310223948568    3.34247541174052    2.51726121609867
H        -4.38326816439560    5.38763659905196    1.61437426004879
H        -3.03995755766161    7.43564585976223    1.33950737431272
H        -0.66553950489438    7.45252538102055    1.96772096574488
H         5.04071937223159    2.43651221269724    4.11879110179986
H         7.47230130359636    2.04299983948183    4.00919921436515
H         8.77515547305543    1.82284217846626    6.10223144147578
H         7.63441828128735    1.96874781587831    8.28146795202501
H         5.21130985146415    2.35344737367741    8.38982589626703
H        -3.68257579544379    2.94822239926401    8.97070593595125
H        -3.66296613930334    3.16404724642117    6.51211944522467
H        -1.62852657454375    3.98281088923002    5.36543495938975
H         0.33500206675955    4.35881006354945    9.15283371997437
H        -1.68207436948935    3.55336937129169   10.27589445841792
H         0.57870436573013    7.68358225195558    3.86927050213939
H         2.07905357519157    7.08608469999426    4.60690515393166
H         0.38743863452845    7.16477324136397    6.40757730248161
H        -0.77870336285011    6.29917088573150    5.38084873024105
H         1.82007906523124    5.67882164722775    8.28185774081310
H         2.84642514475564    5.96796545211224    6.86777683403047
H         4.08594886011688    4.28443287535486    7.95862967828505
H         2.63970093585699    3.44241801048015    8.55163104818484

