73
CSD_code = DOKHOA | q = 0 | S = 0 | Stoichiometry = C35H31FeO5P | MND = 8
Fe        4.23914032609905    0.49089686227987    1.51386652828293
P         6.19378697749789    1.30811283745420    1.83831789389991
O         4.48433464964824   -1.21235199816978    3.82337300617148
O         3.26149082403397    2.77901096338358    1.72456816203382
O         7.47424763319199    0.68692241077578    1.02338159510299
O         6.55895033309177    2.84715223741751    1.52508503266961
O         6.67658442749682    1.26049195571211    3.37340946758639
C         4.34188568646834   -0.51718258572846    2.91654160673984
C         3.51432823221258    1.90919557111686    2.52890941640732
C         3.37489745993580    1.99479359349503    3.98296104268368
C         2.57625233599616    1.18744364898795    4.70369069064405
C         2.57928422923739    1.23391418623309    6.20422809227634
C         4.28256198688640    3.01479362057726    4.61511864122200
C         1.65728125000064    0.24840818822854    4.05144295719710
C         0.92621493946151    0.63511457350845    2.92918882099373
C         0.03684137497353   -0.23936000973663    2.33179031364775
C        -0.12505702295417   -1.51994703850944    2.83180817334660
C         0.60334727283714   -1.91845326004583    3.94078229298492
C         1.47658155992756   -1.04041944730113    4.55261485402645
C         7.63943801386801   -0.62996834526837    0.68604623729223
C         8.36618866494753   -0.91384567352607   -0.46414711157957
C         8.58057043308567   -2.22994937670973   -0.82979271858765
C         8.07260429512681   -3.26196013703215   -0.05772114561016
C         7.35255859667035   -2.97314382841390    1.08851808979762
C         7.13527922170779   -1.65915987229723    1.46532785499166
C         6.56281554381532    3.34661890608894    0.23120661128461
C         7.74561293144174    3.34388496562697   -0.49272897286248
C         7.76304069021418    3.87710907481718   -1.76985249292719
C         6.60885665322103    4.40974818876497   -2.31927168048391
C         5.43367470430085    4.41245307356698   -1.58674628724070
C         5.40318410850525    3.87945213486815   -0.30944787826060
C         7.96178671068610    1.65446956571896    3.73474267085710
C         8.21515807408118    2.97665308642273    4.06651255686769
C         9.48851081181713    3.34997810062133    4.45965779359138
C        10.50522323348020    2.41168536154227    4.51806764014375
C        10.24617628476232    1.09316642887032    4.18427451336076
C         8.97600689979217    0.71001705836203    3.78971030035969
C         2.46723931798327    0.43783747199930   -0.20558279302123
C         2.77415380876299   -0.82413643995933    0.37236956845922
C         4.09652756001533   -1.16919241692730   -0.00359880649856
C         4.64410957574326   -0.06400123241075   -0.67326079893696
C         3.61673882460548    0.92335319241849   -0.81622709525108
H         1.02656741331458    1.64099781112336    2.55338726271630
H        -0.53734050781512    0.07965705586166    1.47391615664184
H        -0.81727515465094   -2.20383463586504    2.36218020461350
H         0.48543240363642   -2.91867039826151    4.33247039202789
H         2.04800472075146   -1.36531872337398    5.40892769091223
H         8.75050164519618   -0.09788571440440   -1.05710167738270
H         9.14308148960395   -2.44938647898517   -1.72479438411726
H         8.23820079101033   -4.28775721403288   -0.34967953495099
H         6.95392568554689   -3.77121986249492    1.69647362790386
H         6.57723347047104   -1.41661365495328    2.35560541751621
H         8.63497512436649    2.92573216639667   -0.04631501673553
H         8.68205889212958    3.87461774681938   -2.33710940203348
H         6.62606003844805    4.82207903617922   -3.31705584271436
H         4.53194441683103    4.82796922653378   -2.01139334502029
H         4.49547155767625    3.86393300973338    0.27289509788578
H         7.41469463334270    3.69694618834441    4.00844729176248
H         9.68615929257199    4.37995776350880    4.71622708510676
H        11.49817120858171    2.70781920116722    4.82119183971752
H         8.76190105110573   -0.31464870515740    3.52499326669996
H         1.51205361932822    0.93047893853956   -0.16556903914285
H         2.05757659570930   -1.49447473344460    0.81797443923113
H         4.57426978417915   -2.12155814695340    0.15270769527620
H         5.60022793377903   -0.03488312429744   -1.17338765661039
H         3.71047771624241    1.83614446037227   -1.37824111732467
H        11.03539892638013    0.35749845004354    4.22548257994201
H         3.71400993361234    3.67718092612278    5.26762393425357
H         4.76698996494513    3.61070029261577    3.84549069800623
H         5.04911091820427    2.52106431441139    5.21109275617556
H         2.47506050459031    2.25944732637691    6.55608221595590
H         1.76221250037689    0.64582944122165    6.61234729547706
H         3.52253399587725    0.84789244003751    6.59109542453280

