106
CSD_code = DOKQAV | q = 0 | S = 0 | Stoichiometry = C54H45CuN2O2P2 | MND = 4
Cu       16.15161897962878    6.77037395925340   11.07142614943132
P        17.99226749937723    7.14359591539534   12.24392217243777
P        14.71549392047401    5.36438864338775   12.39459913915384
O        14.78068677200175    8.05630944835058   10.46818417663622
O        16.27959598004962    5.70692388811543    9.38480066648724
N        13.00278361334042    8.38672502856838    9.03763108020239
N        12.52997505076631    7.88646108364333    7.86092099042461
C        14.14605209099964    7.73909434833501    9.42950558095324
C        14.39899900209529    6.74969379150220    8.41891782673714
C        13.32874580354404    6.93225879791818    7.48079222732842
C        15.44637946272656    5.81167249221724    8.45658937248226
C        15.59051188053998    4.82936949775406    7.29647638236971
C        13.01873127130463    6.22055239426945    6.21143290695960
C        12.28042707116471    9.38751743818047    9.68733065786070
C        12.59357555024103    9.80705287203373   10.97762184264704
C        11.83363103558703   10.79262034571450   11.58038195446485
C        10.76342091830559   11.36753294220206   10.91677861887478
C        10.45064086857054   10.94674259350288    9.63409563459274
C        11.20000962518944    9.96368459795118    9.01991962018870
C        18.77726834408650    8.76867702963368   11.99415079863564
C        20.11533141154490    9.03864390777219   12.25653233326930
C        20.60983566242351   10.31360864822886   12.04653165513439
C        19.77801185119936   11.31819978769149   11.57781210579118
C        18.44589014511163   11.04893286105296   11.30619759555936
C        17.94669085977767    9.77520583433691   11.50688242777656
C        17.69668574760027    7.10980787673332   14.03633268492046
C        17.48555148898718    5.86814729707486   14.63600604162495
C        17.12714194883514    5.79037399189623   15.96754583601255
C        16.96687074024150    6.94883185838960   16.71211529954478
C        17.16386889584068    8.18494084205862   16.11827386442519
C        17.51961676797638    8.27009100359072   14.78350046110573
C        19.36052676141698    5.95795304538592   12.05349185410162
C        19.44228626529522    5.29235113372329   10.83416164978911
C        20.44414417531450    4.36477413745757   10.61616977313664
C        21.36725243276780    4.09630338043619   11.61340948623298
C        21.28753438792893    4.75533750624504   12.82996570090340
C        20.28713942615203    5.68301905008728   13.05494711985044
C        13.67170296769209    5.54720047199920   13.88552881354894
C        12.58710821166464    4.71773072487338   14.15700210307033
C        11.84664626074680    4.90694625424375   15.30876266175074
C        12.17759533968354    5.92295832825232   16.19245569931638
C        13.24605612659639    6.75986157816801   15.91832190586779
C        13.98828491525889    6.57532256370261   14.76551729135615
C        15.58558900263277    3.78923900655584   12.68695151216938
C        16.56587330846702    3.45601385239279   11.75156697254861
C        17.35438155158675    2.33637442207453   11.93250372434390
C        17.17858098417855    1.54240129750944   13.05503291232094
C        16.21437796307769    1.87509208947063   13.99254582312764
C        15.42234984738547    2.99664801706785   13.81727251599322
C        13.44098644769335    4.92155464642037   11.17280117568218
C        12.39373040822447    5.82840316752631   11.00782128344240
C        11.45740625346621    5.63930307929068   10.01094884608197
C        11.56286483139489    4.54865924070292    9.16168254712858
C        12.60204425833557    3.64744624129155    9.31986750818950
C        13.54366168094838    3.83150676187611   10.31769747639215
C        16.74424094843853    3.89660845124657    7.51900545851218
C        18.03233854586989    4.26968793148062    7.15738871352441
C        19.10013482767206    3.41824738029547    7.37637860911923
C        18.89516778005625    2.18436952153295    7.97103390290738
C        17.61680371056771    1.80925979871356    8.34629400627765
C        16.55000257587044    2.66063931100648    8.12077100817296
H        15.73642153103311    5.40111245464729    6.37817277460615
H        14.66048686762316    4.26635957398922    7.21092501215856
H        12.82228301761989    5.16529288651183    6.39240222701691
H        13.83758174514242    6.30507890586702    5.49947130650556
H        12.12925747444101    6.67399177434838    5.78135305815417
H        13.42599481639704    9.36550960592087   11.49984223992295
H        12.08237842269369   11.11205488717398   12.58234911055696
H        10.17646578105149   12.13777977742627   11.39516420122368
H         9.61673470739552   11.38873736759761    9.10811196085169
H        10.96827942239262    9.62158656962771    8.02424249311322
H        20.76574320638904    8.25439608230820   12.61686086901385
H        21.64982678458396   10.52550322534694   12.24904370028516
H        20.17161882535746   12.31127940722093   11.41747618600415
H        17.80027418548048   11.83011828309352   10.93247331797211
H        16.91319616344083    9.53721371655713   11.28402869044582
H        17.61614633202058    4.96811401588212   14.05044262713310
H        16.96770568017385    4.82466588357829   16.42460610331028
H        16.68500646454996    6.88764359859771   17.75285458906015
H        17.03566180402458    9.08857096627603   16.69673600163465
H        17.66278804284265    9.23545857928135   14.31803782497928
H        18.70471862236139    5.49997352112316   10.06979100437348
H        20.49733045908429    3.84525616471944    9.67143393799948
H        22.14832697675009    3.36881946608305   11.44649848779251
H        22.00694200771449    4.54275833322826   13.60784801824086
H        20.21698811100018    6.18547219895505   14.01021781477596
H        12.32785503665805    3.92866016173848   13.46387880996415
H        11.00735815533945    4.25990307138898   15.52035022916515
H        11.59574617588389    6.06434658161822   17.09157654919153
H        13.49955235523792    7.55841711343866   16.60022609724697
H        14.81766039760734    7.22904299492534   14.53272476168178
H        16.71098861020845    4.09000541388078   10.88670025928396
H        18.11288660229780    2.09355104923201   11.20276499313398
H        17.79771424901307    0.66977255175330   13.20408018199860
H        16.08182167647523    1.25972233438191   14.87113794253923
H        14.68530055669708    3.25894208824030   14.56259314513074
H        12.32571093240260    6.68510231974297   11.66655017134753
H        10.65417493424315    6.34986762042715    9.88275174699959
H        10.83566957215000    4.40644715188826    8.37596683783591
H        12.67954863855326    2.79318555558767    8.66046322694790
H        14.35887247131829    3.13139279304534   10.43612683345465
H        18.19878466774621    5.23390814015001    6.69780935795117
H        20.09468319543283    3.71768592876652    7.07601221550796
H        19.72797998163355    1.51604525445789    8.13901345747197
H        17.44788057445363    0.84780102654652    8.81031068808912
H        15.55313130913975    2.35921019573761    8.40977277892005

