76
CSD_code = DOKSOO | q = 1 | S = 0 | Stoichiometry = C36H33N2O3PRe(1+) | MND = 6
Re       12.65040700617443   10.41797949295344    6.73954010950444
P        13.22953813951783    8.45167548420272    8.14589283926651
O        11.44729715596025    9.51695381191593    6.03729815391582
O        14.25739653164128    9.83933590741942    5.59633767736799
O        13.91407986880187   11.38992468650775    7.77203459783158
N        11.33441063168838   11.58290276202270    7.90328674615521
N        12.26015469948601   12.10542686652422    5.51874346480621
C        14.63016018211910   10.44516198438560    4.51403205042455
C        12.78689721935015   12.01455914002997    9.76528068519056
C        13.97866095531302   11.79143286310559    9.00389401476592
C        11.85900232568415    7.70219051001876    9.07173210192600
C        15.71889565954401    9.85420781975439    3.82660984259903
H        16.12054799191284    8.94720396516221    4.25251586313971
C        11.54696426915342   12.10641892176157    9.06143006926971
H        10.79483961439511   12.77648716123742    9.48322278696930
C        13.24226474047503    6.89509382738845    5.86994862393742
H        12.49488756646740    7.60054201986030    5.52734038791735
C        10.34698549693068   12.14071402407984    7.01763596375194
H         9.65812658162748   12.80987250505129    7.54187200230774
H         9.79433322293797   11.32091345624083    6.54708870717309
C        13.63060526409954    5.83277155222089    5.07486169579521
H        13.18425417893478    5.69759465031197    4.10157648868560
C         9.76555757903014    6.49527022682787   10.42729322871645
H         8.95102280492491    6.02473936713678   10.95611410514459
C         9.51541584609753    7.55673992488423    9.57300465654577
H         8.50520632965076    7.91007178438857    9.43316077162617
C        14.07112415658904   11.64140821610660    3.95935506660866
C        13.82432162453441    7.07425635422835    7.12209919332107
C        11.06029813385958    6.02896569760016   10.59763650389521
H        11.25248303365869    5.19551755717903   11.25590446607823
C        14.54170402701213    8.76640623608304    9.34811416371378
C        15.21472117577252   12.08256193618993    9.60846019909356
H        16.10665318582367   11.97245802998160    9.01134571606352
C        16.23705392577785   10.38874969964902    2.67833473343652
H        17.06544016218970    9.90334515895867    2.18529676207348
C        12.10704373171227    6.62558258368098    9.92011000849804
H        13.11568377229484    6.25833549550686   10.04523643710818
C        10.55917619112023    8.16093259061766    8.89338976130605
H        10.37831820249191    8.97837337747668    8.20775332386183
C        12.89481926447118   12.40528036218465   11.10791773618444
H        11.98855760025761   12.55424827886458   11.67610957469282
C        14.59383574227901    4.94356962870924    5.52613318624855
H        14.89932046289307    4.11654598631855    4.90358380343960
C        11.60936576011140   14.26405562881812    6.46853344948059
H        12.24968884444031   14.10652627201275    7.33597198203340
H        10.76732650570306   14.88621276047504    6.76066520372869
H        12.18565383604746   14.80011980284674    5.71788428803856
C        14.27661786047169    8.92806311942747   10.70414893708430
H        13.26449433982592    8.83281070828743   11.07114256846613
C        14.12306608699917   12.58579997729096   11.69517045888617
H        14.19344537853158   12.86485369620081   12.73412649696464
C        15.69793307283816   11.56215223653147    2.14211479192155
H        16.10764024997739   11.98454294629788    1.23888168252432
C        15.84218022518638    8.91926867911573    8.86997422631377
H        16.02804811941396    8.82430023927036    7.80847249381595
C        12.96396242125078   12.37171730442230    4.47638947650258
H        12.70460324241112   13.25267869236382    3.88757561142910
C        14.64481674869390   12.16251866186988    2.77450218056947
H        14.22286555670309   13.06702092402786    2.35975006720372
C        15.31389522127813    9.19965639791281   11.57874583554900
H        15.10986095671191    9.31309332137927   12.63248576372182
C        15.28304739203904   12.44643656096493   10.93130182008071
H        16.24542498131717   12.63148525483179   11.38280549132586
C        11.11274459638095   12.92748705218543    5.90626950537933
C        14.78490021633151    6.17630939273378    7.57798687702778
H        15.24229480396512    6.30838986133055    8.54858374343201
C        16.87302686573228    9.18795279439135    9.75035345951872
H        17.88297230329244    9.29245234800785    9.38313579668158
C        10.15551978231164   13.14645885479053    4.73138633575980
H        10.56888773883111   13.84295797955842    4.00718991453891
H         9.21761863227025   13.55835504776155    5.09368981758426
H         9.95359844491709   12.20038499484908    4.23430995050083
C        15.16671127832117    5.11531034166805    6.77566637329608
H        15.91506976987013    4.42147789643311    7.12787834972528
C        16.61032997270762    9.32148130526993   11.10561896645353
H        17.41762254044948    9.52314704194728   11.79285981409872

