64
CSD_code = DOKSII | q = 1 | S = 0 | Stoichiometry = C24H33N2O3PRe(1+) | MND = 6
Re        6.67755519213040    3.10397569386942    4.36319958291915
P         5.32811586677284    5.10748846550919    4.99823890366643
O         7.72028060822316    4.29155640871842    3.30772762037407
O         5.56541937602916    2.18860852646960    5.18760636148504
N         7.80181418802786    1.40167965332827    3.78040087387365
C        10.93862081765845    2.63583217863372    7.70157646739472
H        11.48627633898352    3.01637621308888    8.55011195886551
C         9.80466100064475    3.27646315804177    7.28028032485727
H         9.44397530671220    4.16015718505015    7.78374677522871
O         8.00047411508369    3.53029314726306    5.88231025753741
N         5.91733683872420    2.63161704121207    2.45370339804483
C         9.50533556806008    1.64725775313898    5.49857740344921
C         7.25228687646647    0.62874215062916    2.66496209482011
C        10.68492220524961    1.01963817216817    5.96520957341464
H        11.02923662837813    0.13430072421889    5.44973549367956
C         5.93884192782078    3.34395545096920    1.38237564968026
H         5.62865076393837    2.89258008451095    0.43789861589850
C         8.87515865559044    1.03017419680392    4.38312036311173
H         9.38735508761409    0.13562047681050    4.02658372303968
C         6.18258467074066    6.73658897182104    5.05513339248296
H         6.24850131527540    7.09381175785355    4.02278522997648
H         5.53589846867450    7.42332310844551    5.60950984475279
C         9.04352688530780    2.81931337310949    6.17668096191005
C        11.39024470106363    1.49127906365881    7.03757517864927
H        12.28348291916917    0.98784997965296    7.37016123061628
C         7.47161378344050    5.04475282629619    2.27670726694527
C         6.48207487546681    4.66557570665972    1.31591001094587
C         5.46240099824819    4.61123592470331    7.76326250612727
H         6.18009217379560    3.84523033286213    7.47386401258422
H         4.91723158695745    4.26374639661029    8.63729787129774
H         5.99919990993452    5.51457115835691    8.03842925266174
C         8.19792168675372    6.22708335934320    2.04796984823758
H         8.96833502252640    6.49445331098596    2.75492530894971
C         3.93382518531057    5.43941084949904    3.84451662017994
H         3.40868538970346    6.33580514057092    4.18416263377078
H         4.36713454607709    5.65676131741550    2.86455468133290
C         8.14358963758049    0.80786488080037    1.43088510380948
H         8.20520803310282    1.85741728901650    1.14440763842608
H         7.74826791292852    0.23705305602747    0.59465915858381
H         9.15205885992699    0.45658102258383    1.63654592438950
C         4.49407867305533    4.86816576779810    6.61484136352866
H         3.86389232688543    5.74078867116177    6.81144965012936
H         3.85565312292897    3.99072998042600    6.48527324673363
C         6.23908485213977    5.49732142555134    0.21340235424635
H         5.48948664728126    5.19806538243155   -0.50421529437434
C         7.57405143593053    6.68686030455633    5.67506520832217
H         8.17194773247389    5.90914911342367    5.20558479605365
H         7.52352574372395    6.46827215356475    6.73698832119603
H         8.07525427800601    7.64391114724086    5.54497790504253
C         7.91222256508350    7.03432183604655    0.97166711820374
H         8.46438203044606    7.95104429106160    0.83314297151234
C         6.92260885070232    6.67897079543787    0.05445536259744
H         6.71209141629764    7.32000054104858   -0.78623567074353
C         5.82950269747953    1.19916323032295    2.37355526106991
H         5.48820535855512    0.86434114019849    1.38936145115541
H         5.14458853941896    0.84718236589736    3.15154091366983
C         7.10438983104127   -0.85185122189317    3.02702262793677
H         8.06863727187553   -1.35114057420122    3.06143858079952
H         6.49503610012009   -1.35328664948710    2.28017238473563
H         6.62183578837136   -0.95118588988668    3.99665882347772
C         2.98053658350890    4.25261104988274    3.75177397636866
H         2.34459852138619    4.34334527855456    2.87484552918985
H         2.33941854032453    4.20063841118837    4.62674684456770
H         3.54277516884661    3.32095594302547    3.68487715658292

