40
CSD_code = DOKVUX | q = 0 | S = 0 | Stoichiometry = C12H9CoF15N3 | MND = 6
Co        4.13020678855078   11.24036349383503    3.88835591585792
F         5.49443972311031   12.61979175672275    5.85586926596287
C         5.32773953285276   11.30112608020008    5.46629147782103
N         3.06193938085297    9.86961256073462    4.62902261153005
F         6.59476113938119   10.85381999641727    5.28470047555140
C         4.85999292355909   10.62486224809638    6.78056404799213
N         3.06308925314426   12.53259453161220    4.76436276068756
F         5.63851502182372   10.95411189968867    7.81232864336884
C         5.24535541078243    9.80994817348502    3.08941384602650
N         2.97881932282589   11.31217513785153    2.39231196351995
F         4.83561791874031    9.28964827695721    6.73062786529726
C         4.69007811931761    9.02203081883385    1.87531122882470
F         3.60986201719075   11.00717922843453    7.12827406317564
C         5.23402495522997   12.61591200351921    2.98538973930524
C         4.71207232502645   14.07486849181483    2.93789203302852
F         5.43411904008243    8.80976765972221    4.02842660649224
C         2.66863699634908    8.85446835592134    4.98779604058307
F         6.50468380027292   10.15534860659808    2.72447632655572
C         2.20295558653843    7.59265297965660    5.44295530845047
H         1.27325849918415    7.70825985528193    5.99836753681825
H         2.96929618638973    7.16316839951064    6.08930473168702
H         2.04531932230489    6.94070924523690    4.58406403673830
F         3.43664088854087    8.56537240932106    2.10014345562087
F         4.62575652444683    9.73168105956349    0.74476212636605
C         2.70064911651116   13.34475946383572    5.48761847255821
C         2.27521709136120   14.36272593015193    6.38131195474708
H         3.07662635523678   15.09878395955700    6.45630131372918
H         2.09094174330603   13.92450605973193    7.36172883922128
H         1.36982214717743   14.84053399854441    6.00993634423306
F         5.42517349299836    7.94210488978753    1.60656368571351
C         2.53827523518880   11.50155811988903    1.35117658771666
F         6.52141779112112   12.72750115892048    3.39627357607356
C         2.01432958076271   11.72568313839550    0.05063747735080
H         1.11933610286910   11.12518475306852   -0.10602867501455
H         2.77987065310391   11.44217554156022   -0.67268175554472
H         1.77894323927884   12.78326512508078   -0.06435329036793
F         5.34071380020791   12.29634290234890    1.64208034745156
F         4.73565156509096   14.70226347946701    4.11773678281511
F         3.43179010897375   14.13995484907411    2.50656776709868
F         5.41726130031207   14.82698336157158    2.09171846495649

