37
CSD_code = DOKWAB | q = 0 | S = 0 | Stoichiometry = C6H20N6NiO4 | MND = 6
Ni        0.00016696524718    0.00004623667227    0.00014033839060
O         2.11198049280021    0.62331144132363   -1.28482994167857
O         2.17477671873337    1.03894161642157    0.83093044447064
N         1.59820231797720    0.63451577475330   -0.17214371373287
N        -0.58887172507529    1.85268170869535    1.21704516168489
C        -0.58117442331386    3.21569495834776    0.68523922679485
C        -1.38292655860996    3.32360480120887   -0.61181176077233
C        -0.65545912447973    2.72428426745507   -1.81530812939278
N        -0.67817358940042    1.26153406875211   -1.79101612696855
H        -1.51225735731801    1.63955304307649    1.59478278679632
H         0.07365093828779    1.80360000468539    1.98999397496517
H        -0.99387469507125    3.92650089226033    1.41781699053908
H         0.45697521571972    3.49818866694863    0.49259934750097
H        -1.57557720617589    4.37843502719398   -0.81341152725071
H        -2.34408911021139    2.82080500174289   -0.48443140195450
H         0.38876832777108    3.04695917346990   -1.80342065571695
H        -1.11730686717741    3.10995140255048   -2.73737455672338
H        -0.06026586387884    0.91661115506041   -2.52453568333696
H        -1.61911885921769    0.93168123215147   -2.00683756199576
N        -1.59796393122664   -0.63430547411471    0.17240948449441
N         0.58898940513275   -1.85251799061287   -1.21703169262556
N         0.67854939329399   -1.26162291165483    1.79100483141152
O        -2.11159249818481   -0.62304507592228    1.28517613715816
O        -2.17465125451661   -1.03883135575782   -0.83055717368265
C         0.58104679041874   -3.21561249146360   -0.68537961743810
H         1.51239483014645   -1.63953738789342   -1.59479572049467
H        -0.07354047548340   -1.80331115359132   -1.98996745699821
C         0.65520687840705   -2.72434497752608    1.81521600679430
H         0.06086703556478   -0.91640150090939    2.52457736922518
H         1.61966081657886   -0.93218021704283    2.00673133133541
C         1.38260501388653   -3.32384302641628    0.61176684812414
H         0.99372723865764   -3.92639744995963   -1.41798561802611
H        -0.45717098460023   -3.49796568856532   -0.49292147869520
H        -0.38915181154393   -3.04658868231543    1.80317114916512
H         1.11676879305803   -3.11028479550064    2.73731336941748
H         1.57487784716605   -4.37875403212108    0.81330325745147
H         2.34395131663796   -2.82135626140238    0.48454176176417

