48
CSD_code = DOKWIM | q = 0 | S = 0 | Stoichiometry = C18H11CoF15N3 | MND = 6
Co        5.91360144676745   11.38822694638696    4.07268994530337
N         4.85025797540178   10.62779228387488    2.65618403086274
C         6.39868601245254   13.02674436136255    3.03904578194726
F         5.26048756834236   13.68276267627726    2.62429060504998
F         7.00614756156601   12.67878560858165    1.85261234902996
N         5.38884596841306    9.74793174744106    5.01669840772670
C         7.29385779815521   14.17764673252364    3.56711359667891
F         6.80349789023156   14.78216941228948    4.65749218570393
C         2.87404490869145   12.13264689409076    4.43875792277070
F         8.53165409200503   13.78707171702905    3.89835477212181
N         6.88158969927805   12.03664937784602    5.42647311047139
C         4.31732597801400   12.30290851448212    4.95206609594225
F         7.43254905591512   15.12693529990866    2.63875999475681
C         7.60938623781222   10.41280715310590    3.49903251838901
F         4.23802715158968   11.85049651247754    6.26900250469847
C         7.63128052733454    9.39834770542976    2.33886694810927
F         4.48373323166488   13.65221046432814    5.11249863217720
C         7.52455471102448   12.55745187254279    6.22171036814054
F         2.47633680391835   10.84553450451366    4.55135372299818
C         8.32547950911228   13.22863865294420    7.18311865645974
H         8.36747294862760   12.65813950412950    8.11012270315772
H         7.88998613723287   14.21046154370570    7.37262895427659
H         9.33030076050612   13.34906649324570    6.77646826125145
C         5.73298689293337    9.39472321774337    6.24820113515066
H         6.36572118951806   10.07781063325490    6.79319492010776
C         5.31478513534992    8.21187154050558    6.83035973478571
H         5.62164987561021    7.97011742486067    7.83465617729699
C         4.50393929004554    7.35909185184759    6.09937237067605
H         4.15880317731277    6.42714093042996    6.51958796369131
F         2.72428953165127   12.45150525645892    3.14842796348996
C         4.60015820406123   11.12713452183997    1.44656017934725
H         5.03158961577070   12.07407622359050    1.17904593311037
C         3.80868374583070   10.49108847041529    0.50571861934891
H         3.65274660326091   10.96037473309446   -0.45119119087298
F         1.98667591081656   12.85622795871213    5.12273286456130
F         8.05739783357155    9.65964683022165    4.58395933530484
C         3.23759141293120    9.27108997925265    0.81647238554442
H         2.61383873356349    8.74627232349498    0.10996708804615
F         8.66656398686097   11.24978643207890    3.26343743017025
C         3.49028267681093    8.73945203019785    2.06670824664778
H         3.06517212877927    7.79159619482558    2.34880264284533
F         7.16811165108679    9.89425362694808    1.18615782200723
C         4.29541929100129    9.43326297833278    2.96281306156726
F         6.85143051793532    8.33145954515982    2.62352721057641
C         4.60394480006885    8.93307755517283    4.29958016154894
F         8.84847645523573    8.91282998389889    2.09107684586517
C         4.14381993820685    7.72508344473579    4.81645549340372
H         3.51521742772965    7.08040033440795    4.22673353775397

