71
CSD_code = DOLNIE | q = 0 | S = 0 | Stoichiometry = C34H32IrN3O | MND = 6
Ir       11.65806721736297    2.88995208983908    9.34309309148579
O        13.21048246116576    1.93949612841688    8.16193926515331
N        10.34802258271516    2.50602500632469    7.60654111402510
N        11.02962030171568    1.19558184544953   10.18494196878357
N        12.38099104636253    4.61344592403210    8.59653518988923
C        10.21695729270875    3.63438334306501   10.53867691469363
C        12.97169783619346    3.33884261071656   10.80375447195830
C        10.02147954505052    1.29159756640010   11.08869778701591
C        10.71331984127772    1.90376292455752    6.52783225636422
H         9.96331682248889    1.80575717296658    5.73059555991711
C         9.53217503000953    2.64782852931063   11.28475078323919
C         9.78540136567185    4.95095707435107   10.68200570003178
H        10.28606765865706    5.74238784627676   10.13932193703636
C        13.76763254459513    4.46408411750974   10.50525469910769
C         8.04669585032662    1.90747806149566    8.25557573561635
H         7.82977857413242    1.13955252560040    7.50865775024481
H         8.56269313344442    1.42289885729032    9.08458127226614
C        13.23484780124134    2.66205597761759   11.98971893107987
H        12.64631967526525    1.79691478862093   12.26423222478719
C        13.15089248696725    1.41796419966775    7.00520684992818
C         8.97538449260771    2.96790196159395    7.65130671357292
H         8.61640024242696    3.22785691324044    6.64433204849530
H         8.93894561857410    3.86328373187438    8.27572912846193
C        11.97827056490538    1.35613962213454    6.18011798441245
C        11.99716093706018    5.17980271307980    7.45419154109708
H        11.14444440254088    4.73801305901438    6.95836127014278
C         8.46154998883835    2.98070784976567   12.11386815273280
H         7.93842935404972    2.21757434265104   12.67165048566492
C         8.72245379612922    5.27988481589706   11.50620415780460
H         8.40722461267388    6.31041348526859   11.59359641291304
C        14.12333443882598    6.24222158479632    8.74721483290176
H        14.97013094603941    6.64120579076339    9.28125597387702
C        11.55502269200927   -0.00002030175512    9.92670411320955
H        12.36728538390929   -0.02174269388090    9.21416483625071
C        13.44031375961342    5.13811825248452    9.25935460484164
C         8.05636208720806    4.29492529144675   12.22099035394071
H         7.22522384193687    4.55628308061008   12.85986707918099
C        12.62847121083589    6.27416696351358    6.89732088899881
H        12.27377554584784    6.68814916583954    5.96702719151038
C        14.24111312928355    3.07340731507439   12.84707002853217
H        14.42391339530867    2.52886185013339   13.76305041689454
C         6.75174905875623    2.52271664414598    8.77459886724615
H         6.19966437264227    2.97747598103052    7.94850872384288
H         7.00049336936794    3.31286668125700    9.48690773582847
C        14.33888799832189    0.83543159063137    6.47031949851719
H        15.22042691106398    0.88651257616346    7.09353974762819
C        14.78190561713560    4.87541230247465   11.37088137979357
H        15.39017120619833    5.73696120872817   11.13695678348765
C        13.72299144182238    6.81572732709017    7.55798625752695
H        14.24779779352540    7.66711932498841    7.15150199614112
C        11.11393689522199   -1.16217386455992   10.52876615893094
H        11.57170204089724   -2.10617981891406   10.28084457909692
C        10.08127394833724   -1.08322982939547   11.45403546177461
H         9.71279248060980   -1.97015447296537   11.94693475885314
C        13.22472920604385    0.18267483219490    4.44771641350625
H        13.25758977010282   -0.28974854564979    3.47753203088326
C        12.06549643132258    0.73479758920417    4.91727439476759
H        11.17111077236022    0.69624707434698    4.30724960333921
C        15.01703496423853    4.18052618436743   12.53850020321715
H        15.80231074679012    4.49762240112846   13.20929919733709
C         5.87060059105141    1.48943818287589    9.47107303572695
H         5.58090171206666    0.71439245475013    8.75763772108571
H         6.44856099541480    1.01043806262483   10.26475702847534
C        14.37578675463447    0.24071055712767    5.24349199865250
H        15.29861315973144   -0.18990376396338    4.87935333922726
C         4.62223408164730    2.12579593928147   10.06875320044794
H         4.00732641682924    1.37744975913667   10.56343985517094
H         4.89888347537329    2.88356669436665   10.79843597797907
H         4.02646414690440    2.60042028567296    9.29213395522360
C         9.53693343856252    0.15473150837745   11.73442388539485
H         8.73876069502723    0.24643375040850   12.45325449284404

