80
CSD_code = DOLNOK | q = 0 | S = 0 | Stoichiometry = C37H38IrN3O | MND = 6
Ir        7.25812926987416    7.02439244658192    3.41356565989185
O         8.26403364524625    8.04752979996964    1.78449896482618
N         6.42095812691520    8.67542878541168    4.15447600045847
N         7.98974292444739    5.34285372771432    2.58363504495876
N         9.09876844541104    7.43605888799287    4.56736094275332
C         5.49094144017403    7.15323373706664    5.69701314636112
C         5.69733221233318    6.55389949947913    2.22816752767097
C        10.12009288771230    8.08144751390868    4.12056595068406
H        10.98144071276591    8.18465098197399    4.79539451604796
C         9.40377048862162    8.60747501465859    1.75118835116256
C         6.21434091010037    6.20914748429868    4.93268652258887
C        10.33062179549325    8.67261236870461    2.84501322098990
C         4.47153967094044    7.19598446930621    2.08976772438176
H         4.22688027337558    8.04236522863905    2.71732773439289
C         9.80914313869180    9.23228382169170    0.53381320136441
H         9.11054539491899    9.17803717359823   -0.28904712279708
C         7.24705474608809    4.81562612585561    1.58013207236581
C         9.19867972986513    6.92564810427594    5.91915310387200
H        10.24616977256432    6.71748921851882    6.18349635714512
H         8.63561027898538    5.99082258104334    5.96847253973198
C         6.15062138045641    4.87949711257060    5.34258248513645
H         6.68065407567002    4.11897182040742    4.78372576392341
C         6.59966567248721    9.89118073276364    3.64225987442391
H         7.24208247088899    9.95582551539334    2.77561224194284
C         9.18184747601864    4.81008601230777    2.84447434271154
H         9.74228017567394    5.25201878584969    3.65599078867173
C         4.97137590771334    9.63046971578059    5.79755382372200
H         4.32447867087244    9.49706718203906    6.64958416443663
C         5.42271186167870    4.49829501587802    6.45718419360126
H         5.39669127285275    3.45893239338104    6.75401509754352
C         5.95484092026323    5.45292493413248    1.38537109899411
C         8.60774822787565    7.90801902968676    6.93896670800069
H         9.33821411693960    8.68734741903871    7.16940114124572
H         7.74020397242496    8.39325532927532    6.49208884939242
C         4.75621111961799    6.76740551244727    6.81761841120809
H         4.21179959867846    7.49769410231464    7.39837807866024
C         7.72800171708388    3.74345974197864    0.82706323550432
H         7.12956642232147    3.34268773659306    0.02541064197857
C         3.53712405315838    6.77402963498885    1.15928530414717
H         2.59203317365433    7.29198505488070    1.07266345500582
C         4.72547661874019    5.44180378289702    7.19772220116319
H         4.15998301563088    5.13926086789803    8.06717739641753
C         8.16881247786534    7.19501185801270    8.21340912498468
H         9.03843338446781    6.76844712169126    8.71891426306827
H         7.50366485451431    6.37274654720450    7.94029634387882
C         6.00251325781506   11.02270684975146    4.16268572576661
H         6.18349720140541   11.98498409808685    3.71164239283049
C         5.16981562115657   10.88969861682890    5.26615457430808
H         4.68412601866173   11.75159124242961    5.69819008670353
C         7.42606807664520    8.12725704278859    9.16617388849204
H         8.09736563853609    8.91806978749850    9.50925334309623
H         6.60358895037188    8.60164051614092    8.62572383967690
C         6.86689983281185    7.37122353981175   10.36845740495172
H         7.68789748590939    6.89726092933690   10.91168444801867
H         6.20679425183301    6.57763813183995   10.01041762697032
C        11.55934321569458    9.33886210385039    2.65907841914759
H        12.24718074486267    9.37868685554517    3.49500926124025
C         8.96822358631915    3.20433063761934    1.10033063507560
H         9.35138737716601    2.37856316758366    0.52000931904023
C         9.71197641496851    3.74815648775600    2.13903920242067
H        10.68523876266428    3.36065359538435    2.39447148135046
C         3.80546441633082    5.69022488857595    0.33688455376902
H         3.07377756822477    5.36435642013046   -0.38812242589889
C        11.00751433555882    9.86979173352519    0.40045353290323
H        11.27190427723503   10.33205891450946   -0.54085194966889
C         5.01093491730532    5.03003616952721    0.44863898058299
H         5.21275938025758    4.18623197775348   -0.19491771353270
C         6.09312667875537    8.28164223285561   11.31823606571391
H         6.75251042828873    9.07559669782264   11.67717791399136
H         5.27241655591202    8.75582554035039   10.77458196869900
C        11.90263861752670    9.93148841242250    1.47581060871860
H        12.84984977381097   10.43784481789697    1.36647975927838
C         4.75734343858539    8.42677591378800   13.45998059749502
H         4.36638279684365    7.86110632930984   14.30254857509965
H         5.40353531792976    9.21288194379006   13.84477994314763
H         3.92184824942829    8.89425682365245   12.94323803011572
C         5.52950139189399    7.51635163612472   12.51314660484063
H         6.35022436130649    7.04144745945909   13.05560134242198
H         4.86992988383926    6.72338359603266   12.15320700022525
C         5.60610267205367    8.52636496012398    5.22987447438619

