43
CSD_code = DOLNIB | q = 1 | S = 0 | Stoichiometry = C12H24AuN4S2(1+) | MND = 2
Au        1.51157812806046    1.86212696603133   -2.52510339373192
S         0.79988976951471    1.39204021419219   -0.34582731214077
C         2.20982047992008    1.32117998091734    0.57754575059256
N         3.44847950206668    1.59059002409826    0.15004907216309
C         4.44005239356504    1.39018161461325    1.19249722748733
C         3.56583237273455    1.05466669303646    2.41330817171798
N         2.22197448452073    0.98342600332186    1.86035939639685
C         1.06612122932352    0.72267855428736    2.68080790917603
C         0.53887703718820    1.98634889135073    3.36591136858469
C        -0.69255363900042    1.66965514037677    4.20326169892926
S         2.24874064734210    2.30876582831180   -4.69870743369125
C         0.85319290600785    2.35822271444859   -5.64447814976900
N        -0.39778841817425    2.14291978792028   -5.22189694394914
C        -1.36879937801516    2.31518279729961   -6.28889640651951
C        -0.46851981314637    2.55230945458886   -7.51387199903715
N         0.86830503447501    2.62341249269877   -6.94432358385011
C         2.04593960703107    2.78040478727015   -7.76083478554425
C         2.56982312641842    1.44207410498288   -8.28906825067264
C         3.82117438686930    1.64699008990410   -9.13140068125459
H         3.68341579876548    1.78303160601375   -0.80982271868820
H         5.03067954402067    2.29786124305731    1.33666648091054
H         5.11552147333369    0.57134057707215    0.92796994403720
H         3.61587327817671    1.83092414438956    3.18210622231359
H         3.83082895470630    0.09747899137599    2.86964391624964
H         1.34566407305211   -0.02338336863132    3.42864089125949
H         0.28681841234670    0.30406211124540    2.03936113958033
H         0.28558918597991    2.72284206982753    2.60084232351821
H         1.31629128324631    2.41063636490772    4.00451339793263
H        -1.05952189854763    2.57007466882366    4.68634461220824
H        -1.48603642506852    1.26774131459354    3.57897126971854
H        -0.45628035731157    0.93985561663111    4.97313800905290
H        -0.65282170161456    2.02710459480370   -4.25486376040623
H        -2.02046872004146    3.16921744488069   -6.08201293633498
H        -1.98693308140491    1.42006441848587   -6.38962181962149
H        -0.70164423784263    3.48590902069136   -8.03214121415962
H        -0.52754028075642    1.73160753904712   -8.23447610694115
H         2.81717697315188    3.25819944730024   -7.15176365869186
H         1.79262978790789    3.44253060636054   -8.59171302989916
H         1.79843145515038    0.95723649520387   -8.89059431597875
H         2.79834880838492    0.79391742485363   -7.44098903928638
H         4.18768942215325    0.69216008332467   -9.49702845011745
H         3.60828151501350    2.28292101056633   -9.98710470434337
H         4.60626688061882    2.11299043551947   -8.54149810712067

