92
CSD_code = DOLVOR | q = 0 | S = 0 | Stoichiometry = C48H35ClN4NiO3 | MND = 4
Ni        6.47050714039464    8.36986474914485   40.89440922051809
Cl       13.06003812351239    5.76792743502133   41.99115610404321
O         9.24034764888949   11.10411306177978   41.12368670171915
O         3.64835689112042    5.78594190490105   40.28706210402358
O         4.74277802662557    7.65015366473026   40.80103038887233
N         5.86351872233348   10.06742881823096   41.66311570816855
N         8.19795563557186    9.04053932737501   41.15493838733763
N         7.04852317734745    6.73553307762948   40.28152513922712
N         4.31891145663020    9.69007148807885   37.68834009977405
C         6.00653856289477    9.87951132857025   43.12658463233670
C         5.00444847582615    8.85035577638042   43.55734863499537
C         5.39261445093991    7.50407970146174   43.66308026048950
C         4.46240758409243    6.54502184800501   43.94753713632569
C         3.10217102725753    6.88580869840906   44.09764454165578
C         2.12274314909917    5.89878475100897   44.33305666406536
C         0.80029597701957    6.22920381686186   44.42012933999228
C         0.39738918029057    7.56344542774357   44.26122904063517
C         1.32181007533613    8.54589300315798   44.04225689695471
C         2.69878939420208    8.24273261207668   43.97814431327505
C         3.68896145278933    9.23051106070898   43.73294156982335
C         3.37133640670666   10.66316221843635   43.56869344663053
C         3.78494037058352   11.28719353105185   42.40337258222414
C         3.52310204762798   12.65179247746959   42.20145742396247
C         2.86493811656440   13.38479009996556   43.14788192634695
C         2.47184374169904   12.79547301115413   44.36650286296830
C         1.83284028200653   13.54617224995624   45.37581293289390
C         1.50451736193516   12.97439970045723   46.57181920437016
C         1.81635548514987   11.62795251317928   46.81602336973735
C         2.42309368440330   10.86983592867696   45.85471829907975
C         2.74568003211412   11.42022600230529   44.59460792151941
C         4.47130754934378   10.47959953073150   41.33477045684351
C         6.85656574458560   11.04014113537742   41.21175925535238
C         8.24807188754560   10.40146397019973   41.16970020731014
C         9.32940906849625    8.27965059217962   41.32829511299799
C         9.36193009552034    6.90970896693717   40.94594942065252
C        10.53159643694722    6.16316173595732   41.15851336736427
C        11.63939106395301    6.72478001958745   41.74439206024652
C        11.61442314522463    8.05462387938504   42.15040241276749
C        10.48284004335316    8.80383063182027   41.94376627067094
C         8.23407803309375    6.22828070758020   40.34092772177767
C         8.50768051254048    4.88195073707127   39.76272257112634
C         9.07294132008066    4.77924084503944   38.49720445502544
C         9.32686053288490    3.53395950832207   37.94970802653531
C         9.02359366510577    2.38640119137364   38.66221326558701
C         8.46812987877008    2.48481309070523   39.92726321461735
C         8.20861447421787    3.72695230619246   40.47815778344053
C         5.96802143187902    5.99936067180952   39.64762512261731
C         4.64409411150131    6.47580356958607   40.31079140831030
C         5.85605942972884    6.37167101180383   38.15036898317949
C         5.51302883682572    7.81406555211451   37.97757194737874
C         4.26301479033495    8.32732507678711   37.78395989911478
C         5.61522206213394   10.09330976409858   37.81777041752117
C         6.18060274470766   11.35961474433161   37.71570560525405
C         7.55374205545753   11.45986594739999   37.80937156704734
C         8.35330035835164   10.32855467567030   37.99480990689354
C         7.80355131374740    9.07002720681435   38.10186388094351
C         6.41027207065285    8.93353627673653   38.02757139927678
H         3.52740472599682   10.29288614996982   37.54168250630589
H         7.02514407298322    9.54735565496845   43.34809414451784
H         5.83841834956376   10.83940306202321   43.63612146580535
H         6.43785573857387    7.24384983167486   43.51618940167408
H         4.74677657931860    5.50610269890233   44.02919466671964
H         2.44000426798401    4.87045877915470   44.42736869995676
H         0.05588622688277    5.46648272391904   44.59508893144540
H        -0.65357663252215    7.80948943783807   44.30547396792828
H         1.00198385980708    9.56817178862440   43.90522164538798
H         3.84464642620601   13.11630002493455   41.27967725352946
H         2.65245309294638   14.43114031412959   42.98325465578507
H         1.61651849569226   14.58767677293382   45.18470670509127
H         1.01635451927937   13.55540122937709   47.34027561033066
H         1.57583974519692   11.19409579702575   47.77533604852599
H         2.66959679890123    9.83796357320384   46.05323190940813
H         3.89209147295517    9.56416086732030   41.17258925813296
H         4.50109751156934   11.03690531405937   40.39674716325791
H         6.88866775967922   11.92689617857821   41.86058346720779
H         6.62894205224351   11.36941970968386   40.19450142282468
H        10.55959105294101    5.12425141649204   40.87086229283386
H        12.47661810705179    8.49273381641551   42.62772690948621
H        10.48011866188021    9.83344513883811   42.25800989072008
H         9.32271900280151    5.67526549585084   37.94759463248496
H         9.76559080673628    3.46181573076498   36.96591084647503
H         9.22356761538972    1.41586633456369   38.23417755213901
H         8.23594587679400    1.59214989540487   40.48817695043498
H         7.77923363940746    3.80800344264901   41.46625763868181
H         6.09950019689483    4.91587139308595   39.73766955210795
H         6.80025366643590    6.13829037997524   37.65156979289691
H         5.06580064057653    5.75350054420154   37.72152269500030
H         3.32838804071769    7.80543963322817   37.71244582426380
H         5.56411307057443   12.23196993673694   37.54851413473713
H         8.02494691780458   12.42788135376214   37.73129687200446
H         9.42371164697117   10.45230069514475   38.05288527135571
H         8.44049965580277    8.20274225500046   38.20227762672301

