80
CSD_code = DOLWEG | q = 1 | S = 0 | Stoichiometry = C29H47N2OPt(1+) | MND = 6
Pt        3.04516263413705   -0.84153302372702    6.74647752793654
O         4.04277945173405   -0.01364834031330    4.61331831369987
N         1.60051336913921    0.92186455861216    6.75244948362422
N         1.27766406269455   -1.60478910368862    5.57736311163483
C         2.28620845458179   -1.64034660084609    8.46558919065176
C         4.54444638727488    0.01918706299421    7.84488447153981
C         4.22220837251251   -2.50802517640811    6.59984908008568
C         0.64392544273857    2.28813803803698    8.52780353206649
C         0.72509273388020    3.44637571302286    9.28856126603311
C         1.68981392845879    4.40508852278991    9.05245604495151
C         2.61789929082267    4.21351745510115    8.04541125329080
C         2.59376580234562    3.06574097138703    7.27319980146783
C         1.60270043764032    2.09591142596858    7.51195099065395
C        -0.42009276508233    1.27391319303250    8.88335521274276
C        -0.27610791961666    0.82562497349983   10.34124571410692
C        -1.81887569524447    1.84685226842472    8.63467198480198
C         3.53344931938401    2.88046901520872    6.10788445904811
C         2.87347446444484    3.41351269418338    4.82981302023284
C         4.89698192042535    3.53620249777606    6.31455025314229
C         0.53069302610556    0.59214506062660    6.12191600701637
C        -0.06536945424316   -3.61438113957376    5.87086046998820
C        -0.28051763800539   -4.93989222476196    5.52041596003307
C         0.46763995017677   -5.56359371851352    4.54147206713307
C         1.46431495008329   -4.86432528499224    3.88617501418643
C         1.73012832501166   -3.54484257039480    4.20887970036652
C         0.96849227522164   -2.91710439408598    5.21155965075357
C        -0.91069915571168   -3.01445194449267    6.97226933967825
C        -0.86776771918730   -3.87211245980366    8.24081819234395
C        -2.35966991394052   -2.84988968898868    6.50090390341690
C         2.72014090553186   -2.72745794126215    3.41845362936776
C         3.91841640473711   -3.53472088031996    2.92421240785379
C         1.99600025245406   -2.07254424201302    2.23589506533741
C         0.36194968458239   -0.70619984402911    5.52809819984938
H         3.65772321480241    0.67125740139608    4.05852563046684
H         5.00017913108989    0.05556476304598    4.55477192095400
H         1.44707008146682   -1.01537115330823    8.76975637001527
H         3.01241230058080   -1.67775055284788    9.27335714229922
H         1.94004703591405   -2.64973964762044    8.24676153853611
H         4.12264649376787    0.87296215274080    8.37720064301155
H         5.31474297118962    0.37089875532907    7.15533934639181
H         5.02177889683574   -0.63720989267700    8.56830927773500
H         5.01582607846439   -2.28433800439293    5.88472351437712
H         3.60587540210531   -3.31818228519132    6.21087989604047
H         4.67603822996722   -2.83140977123607    7.53315060574402
H         0.00855940399587    3.60588044940284   10.07815880155923
H         1.71455588790468    5.30462414846082    9.64693337368127
H         3.35894787141068    4.97189572860028    7.85677767857974
H        -0.31419923340827    0.38205384978837    8.25460034134531
H        -0.95411449280681   -0.00026107833170   10.54363589610035
H        -0.51832890894039    1.63356346227665   11.02499125939107
H         0.74119255757174    0.49901024112249   10.54693675809830
H        -2.57247576097766    1.09271323865645    8.84843625509285
H        -1.93608613891227    2.16852292410048    7.60147205169415
H        -2.00386757307226    2.70410700276525    9.27548672740321
H         3.68626782696755    1.80199368563339    5.99774851936790
H         3.54752570621727    3.31628949617159    3.98045355210741
H         2.63202840841355    4.46737970854670    4.94621402073715
H         1.95032577463176    2.87928871324604    4.60843828365712
H         5.58917956821458    3.20742036961607    5.54185539936097
H         5.31181965118841    3.26950290841143    7.28343042608279
H         4.82793853620806    4.61836237413899    6.24962368463729
H        -0.30984769570293    1.28129953570062    6.03724056714114
H        -1.05905836728218   -5.49414108890578    6.01926370037143
H         0.26530114974720   -6.59018634673821    4.27974674046983
H         2.02911556067093   -5.34953936947772    3.10797239865000
H        -0.52710637718476   -2.02279257878915    7.23689185387618
H        -1.33786059567263   -3.33747162913740    9.06268473820758
H         0.15690991129550   -4.10387360898766    8.52179503406759
H        -1.40235288299969   -4.80691418606564    8.10194837324778
H        -2.95627303903899   -2.39034592259732    7.28531001989884
H        -2.79529097903623   -3.81617219469635    6.26232959984616
H        -2.42170011278367   -2.22677921903936    5.61076443264015
H         3.08915272882502   -1.93085363024839    4.07250456513258
H         4.68226030840886   -2.86125772084734    2.54231264202743
H         3.63836127454684   -4.20353866078232    2.11512180322425
H         4.35019855400197   -4.12276091282730    3.73032008844082
H         2.69187169154274   -1.47520650039234    1.65138316896139
H         1.18776819536451   -1.42808542999669    2.57804897843644
H         1.57057706682023   -2.83410598900407    1.58652251227055
H        -0.59889689740325   -0.90378840746049    5.05330554957952

