71
CSD_code = DOLWOT | q = 0 | S = 0 | Stoichiometry = C22H38Cl2N6O2Pd | MND = 4
C        -3.52137308102047    6.37147601150197    1.67218964128741
C        -3.80219061473509    7.64178055697237    2.48175356673886
H        -4.22214474247557    7.40228869708822    3.47217951359985
H        -4.50317749645915    8.26907551341932    1.93069628886827
C        -2.47007951304695    8.39395308006253    2.62833263813253
H        -2.13020029499992    8.72784870975995    1.64731882407226
H        -2.58567429600519    9.26451099941060    3.28850541529298
C        -0.46192771222461    6.34525428522394    4.68195264017567
C         0.27968968091007    6.23130106775063    3.50146204078514
H         1.17885316982146    5.66821959197635    3.35888998005517
C        -0.38390269984840    6.99300971986080    2.55781433731441
C        -0.20935877750731    5.76351223883679    6.02854691962714
H         0.31968045926225    4.81838465706451    5.93915388590481
H        -1.16235496922798    5.59501059489454    6.54193210535557
H         0.39912436952966    6.44636936672804    6.62476762517513
C        -0.07676011389442    7.21885200356763    1.12480621263131
H         0.77976887417676    6.61553233735005    0.83847133175194
H         0.15835187711335    8.26629144802669    0.93578511301484
H        -0.92984828260355    6.93829366595373    0.50610327622327
C        -3.26684050272199    3.93425644712020    1.84040908088106
H        -3.09857421982299    4.06950750660889    0.76662448925867
C        -1.99815277490714    3.40808763273026    2.50909710582025
H        -1.75856480094969    2.41583396503403    2.13738690077437
H        -2.14654729337617    3.35495099797882    3.58576069490254
H        -1.15934049659324    4.07007124019259    2.30622491574436
C        -4.44484095306922    2.99369430212876    2.07610573654575
H        -4.22980746714996    2.00992639432350    1.66832044017909
H        -5.34069587561235    3.38150442158731    1.59751898137684
H        -4.63248207986549    2.89846874701116    3.14347848657883
Cl       -2.08269201344968    9.68646568338076    5.89892872152621
N        -3.58358564379600    5.24162884080322    2.38021547856054
H        -3.78436714535924    5.26119455443979    3.37966873520876
N        -1.45503024659735    7.52821342235520    3.17915383523205
N        -1.50819378794250    7.12735492781555    4.45520422993824
O        -3.21184911343681    6.43336357192397    0.49404422075099
Pd       -2.97036591739478    7.56763131234832    5.72084724484505
C        -2.42025656589925    8.76418584092583    9.76826608369497
C        -2.13939179705984    7.49392877719241    8.95864943664199
H        -1.71968849129812    7.73342205760831    7.96810581529921
H        -1.43830118570212    6.86663729817632    9.50959284393487
C        -3.47152331101987    6.74177483010471    8.81229732981509
H        -3.81135823764280    6.40790584227637    9.79333179711728
H        -3.35595406400102    5.87119887719319    8.15215662284791
C        -5.47961678453259    8.79034292508208    6.75851716605695
C        -6.22127543759130    8.90438349683987    7.93898020323556
H        -7.12045238649154    9.46746074773675    8.08149229092842
C        -5.55769557053346    8.14275756134931    8.88271373832660
C        -5.73217135730976    9.37193748101996    5.41182914063079
H        -6.26223931777210   10.31655975251101    5.50118353643464
H        -4.77903867741615    9.54143979898157    4.89891585533848
H        -6.33976264549213    8.68842020217410    4.81534284199349
C        -5.86480169959449    7.91702003400038   10.31574098827095
H        -6.72124878075340    8.52045019298573   10.60208317425923
H        -6.10000191018986    6.86961204006290   10.50483251576120
H        -5.01164326343007    8.19751772121836   10.93437537918733
C        -2.67467567185046   11.20142208473337    9.60021717599457
H        -2.84299665559324   11.06610181160856   10.67398601766744
C        -3.94331159118896   11.72768095084482    8.93150603658462
H        -4.18286466928912   12.71991606782953    9.30328355442380
H        -3.79487367259685   11.78089415834839    7.85485187231630
H        -4.78216602105312   11.06572281853048    9.13429288726532
C        -1.49663034720376   12.14195883715947    9.36463588252976
H        -1.71160966922150   13.12570104920189    9.77251886562746
H        -0.60080856768860   11.75403903399623    9.84319417382950
H        -1.30897095302473   12.23727484414348    8.29727505114271
Cl       -3.85912367393174    5.44934361689958    5.54101313913644
N        -2.35805509740273    9.89406892463982    9.06029939485637
H        -2.15731929608330    9.87454471920093    8.06082464666036
N        -4.48656283517357    7.60750791321551    8.26145290239588
N        -4.43332804613171    8.00828627730330    6.98540952526271
O        -2.72952725355507    8.70226290167162   10.94648146039913

