71
CSD_code = DOLYUB | q = 0 | S = 0 | Stoichiometry = C33H34AuClN2 | MND = 2
Au        3.55408442647151   11.07809022440530    5.66802558309399
Cl        3.51709012241957   11.96125705718194    7.73778912230044
C         3.58572242768063   10.28477482435710    3.79838653328321
N         4.44226946154570   10.75745578732242    2.89226035911009
N         2.74826244662494    9.29570160821024    3.48474229152225
C         5.10264974871147   11.98596566229133    3.21282229763735
C         6.39179731153177   11.98495907099151    3.74483986916656
C         7.00554636444704   13.20307136431762    3.99873667694602
H         8.00158049863776   13.20674780291186    4.41751471266421
C         6.36686102294656   14.40736550874457    3.74856910555320
C         5.07303634851396   14.38004344754939    3.24699546712996
H         4.55290724563724   15.31059006205525    3.07120324895410
C         4.42495660646632   13.18541789646417    2.98011705943403
C         7.11378911627074   10.71362365297186    4.08111356167076
H         7.83815723875115   10.45828911446397    3.30602595459355
H         6.42169533372148    9.88350343273114    4.19939426423969
H         7.65837017821613   10.84040981562137    5.01398214180318
C         7.03737744098990   15.70897401199816    4.06037688519281
H         6.69292516228884   16.49502488622021    3.39240136890204
H         8.11813931616783   15.62053637206040    3.97945138141186
H         6.79835952193778   16.00570310637954    5.08173985370268
C         3.00460070855227   13.18583809946772    2.49985852784720
H         2.72312552033526   14.17233568337589    2.14136093022985
H         2.34534911966178   12.92187817293379    3.32838970365946
H         2.84951287073346   12.46522717271384    1.69841348722497
C         2.07126469944930    8.65733655224711    4.57187153630879
C         0.76648335191025    9.01495156492819    4.90895588087381
C         0.13726482563183    8.33340934732343    5.94119494612047
H        -0.87172238992394    8.61194839473557    6.20917335363873
C         0.77597868650455    7.32461896441886    6.64412383932567
C         2.08581125940935    7.00935777599866    6.30886035226370
H         2.60503287685483    6.24270087898360    6.86566169332749
C         2.74907793733366    7.66512297419549    5.28546432144616
C         0.04205965073804   10.13109347983790    4.21602420302107
H        -0.52976403243537   10.70109720835741    4.94469761793199
H        -0.65871798515317    9.74218831960911    3.47545006702881
H         0.73478933734418   10.80686001706682    3.72055606873742
C         0.09043073739645    6.62080359847613    7.77356541741490
H         0.36561666318180    7.09187059403997    8.71725407695651
H         0.39053170484732    5.57628890066883    7.82043670164302
H        -0.99036100062272    6.67640269672563    7.67034244368097
C         4.18320184830295    7.34652541636492    4.98573971059740
H         4.47526092944988    6.41557043716784    5.46414333329411
H         4.81774061252999    8.14478099060970    5.37404959060347
H         4.36134955963369    7.25993337837207    3.91490475487136
C         4.99014220596502   10.03625212949505    1.74606345360864
H         4.92645105125469    8.96537482251462    1.95517853981360
H         6.04938128389500   10.30786811378591    1.69659147990418
C         4.39028953781176   10.33412509625215    0.39579175164380
C         3.73939978210220    9.32972240937923   -0.32727592238472
C         3.26839415195235    9.60650626299156   -1.60640068375954
H         2.76911280408086    8.82562540417978   -2.16146499011293
C         3.41973872791359   10.86567159749494   -2.15714591234356
H         3.04187209791201   11.06902734056786   -3.14782242596246
C         4.06188957898800   11.86055933524259   -1.43894917730112
H         4.18911267563182   12.84367771993404   -1.86616902247704
C         4.55744280864010   11.58864977232459   -0.17627499310527
H         5.08443343291132   12.35449122549935    0.37483971969078
C         2.23874919768213    8.96843069884423    2.15549427954672
H         2.31088516824980    9.86378209892056    1.53295087866922
H         1.17771019863948    8.73416431448473    2.28767425098100
C         2.86960237221259    7.79618474205842    1.44895936714902
C         3.55323465399040    7.97998205334088    0.24316478051132
C         4.05508790686392    6.87211328383314   -0.43167124143320
H         4.57951547866367    7.01977938377876   -1.36456247506238
C         3.90200487313817    5.60005805992111    0.08816173334259
H         4.30403224608207    4.74978011685060   -0.44189305263084
C         3.22704621913843    5.41949222394860    1.28390614901562
H         3.09823754507125    4.42822847648315    1.69136980714454
C         2.70096901617372    6.51185513256813    1.95005226855019
H         2.14887015350757    6.37155285803240    2.86845114032104

