72
CSD_code = DOLZIQ | q = 0 | S = 0 | Stoichiometry = C33H34AuClN2O | MND = 2
Au        1.44479594827014    9.09926153878353   11.79021611342659
Cl        1.39445393253200    8.35187726250372   13.91305007555606
O         1.07557451606803   10.51200089025778    5.50552158799737
C         1.50304414120794    9.78797804273797    9.87031533195336
N         2.44809166957482    9.33078202087459    9.05299349302776
N         0.58604777321438   10.67456908930860    9.47488764033928
C         3.17746668161651    8.18856838065427    9.51883941248148
C         4.39992855002136    8.33611885831798   10.17207192065038
C         5.08458223148349    7.19290357649826   10.56005867567054
H         6.02898088957807    7.30151516066521   11.07362756661479
C         4.57886129997716    5.92467486204945   10.32304040532830
C         3.34636583894663    5.80751386420607    9.69466394711332
H         2.92932238885080    4.82557011240569    9.52482948974629
C         2.63166855127108    6.92228678516453    9.29162666935053
C         4.97507694790387    9.68350492765590   10.49515958431522
H         5.41119744485480    9.66291096328238   11.49134952994180
H         4.21178349497275   10.45736918020986   10.47337524566999
H         5.76679771595216    9.94809347649485    9.79209056099346
C         5.31966545032075    4.70642205862897   10.77897101460327
H         5.13554172821064    3.86671100403958   10.11277530985850
H         4.97958171694232    4.42628772375928   11.77603905018281
H         6.38935344209099    4.89494917801410   10.82817280804737
C         1.27826918066516    6.77583526561674    8.66472570377846
H         1.07627780032349    5.73370061649222    8.43402769894977
H         1.19975388339012    7.35570789997223    7.74616020976426
H         0.51544741196487    7.12845580568717    9.36075415467637
C        -0.17237353686858   11.30305663485631   10.51375553666379
C        -1.47466069962717   10.88569349918918   10.79356484779918
C        -2.19039326893752   11.55248853086926   11.77653547069685
H        -3.19583789763500   11.22617624471948   12.00012202983658
C        -1.64102140014273   12.60580101901598   12.49106164696574
C        -0.33293859105560   12.97753778644664   12.21894467897559
H         0.12168841947363   13.77541974183728   12.78820110571749
C         0.41756974763796   12.33683237136716   11.24554502027125
C        -2.10243499885014    9.71335296181476   10.09854877537633
H        -2.69435863816168    9.14379790532702   10.81136388105580
H        -1.34949159881679    9.05293894579862    9.67541319147339
H        -2.77075444326897   10.04014799951153    9.30033122729994
C        -2.42079720294979   13.28957291274978   13.57030306590224
H        -2.12082331442665   14.33029154476569   13.66827862883155
H        -2.23413773725673   12.79395485210394   14.52312748266271
H        -3.48845756011805   13.24346012942550   13.36965522493191
C         1.85297619288028   12.72659375760993   11.04948384196138
H         1.99302769734195   13.78533134972808   11.25538643568763
H         2.20369091518513   12.51633097482700   10.04164808814721
H         2.47106972396473   12.16182943770576   11.74895222757953
C         3.01905559382015    9.95269456367181    7.85377435342165
H         4.09715862847274   10.02670003129613    8.03946905163475
H         2.63513235633784   10.96482124029781    7.76637550250315
C         2.84092046081292    9.14938465469673    6.58833419000027
C         1.94176986522374    9.44825511023985    5.56143608174357
C         1.82121559777507    8.58251992356032    4.47236490534003
H         1.10192051489584    8.83848380181975    3.71000055663874
C         2.59118858682880    7.44478464473235    4.37529655518629
H         2.47661146024135    6.78881871788121    3.52623078751194
C         3.52387271938816    7.16603111418974    5.36156680881961
H         4.15440795399000    6.29381120464497    5.29039592056143
C         3.64306597969968    8.01639784299791    6.44033584152387
H         4.36941663209059    7.79811803148707    7.20889480501923
C         0.09246997836288   10.89927138784860    8.11937961793899
H        -0.97482826035671   11.11931978200205    8.20844719845384
H         0.19894755345311    9.96616279692786    7.55833580996865
C         0.73694826688170   12.01919190425873    7.34777574713226
C         1.29788839134451   11.73951455441241    6.09677347119098
C         1.95827635776776   12.72977454878197    5.38447564726858
H         2.38783270245759   12.48811908804491    4.42414091839410
C         2.04493334070848   14.00922711873899    5.90576602984181
H         2.56137610733758   14.77765838246926    5.35132006116747
C         1.45343272854366   14.30525498470243    7.12169218208234
H         1.49781316184945   15.30898567851220    7.51545693098251
C         0.79981336874452   13.31570418701881    7.83629074607148
H         0.33048751474232   13.54601756080308    8.78080467173371

