48
CSD_code = DOLZUZ | q = 0 | S = 0 | Stoichiometry = C21H19NO6W | MND = 6
C         2.84770427441661   -2.20544663476776    2.32941372359238
C         1.66413725255811   -3.16170874539922    2.26223468392023
O         0.75581883344631   -2.82152834127445    1.21906951192907
C        -0.09293262655626   -1.81990222282344    1.41584878395116
C        -1.01908941231606   -1.47668659412848    0.27777857498127
C        -1.96989664141563   -2.63640682706947   -0.05249928687842
C        -3.12483103610494   -2.43558813674988    0.92367406339881
C        -3.32609314874103   -0.92216323271686    0.91146145579213
C        -1.89812578831753   -0.34463601421292    0.85125957879382
C        -1.32548820644882   -0.07518064982878    2.22873571540247
C        -0.29839167627744   -1.03483235114943    2.49629905627971
N        -1.68592128938913    0.85965358559531    3.03132871608990
C        -2.65948559572708    1.79590956425550    2.62385659403060
C        -2.31330556364620    2.82652647584111    1.75267468254416
C        -3.24766511892249    3.78508523314053    1.40746576379238
C        -4.53594120732850    3.71739286868099    1.91047698194803
C        -4.88816365658281    2.68473427685960    2.76352494088626
C        -3.95869867362044    1.72540089001252    3.11948742709271
W        -0.77663813260164    1.47643971721630    4.99589323238398
C         1.04510911898340    1.26959930169339    4.21152964142981
O         2.11411591791232    1.16650297801261    3.81383791365603
C         0.03994499341475    2.04726227652874    6.70437562999897
O         0.51892601719795    2.37036941823394    7.69409015048213
C        -0.77580611739284   -0.40465787964491    5.66056525181775
O        -0.75727180640535   -1.45735492625520    6.10979387401490
C        -2.57248903138328    1.74160374532793    5.83517859750677
O        -3.53800028327643    1.95164298727648    6.40736598675042
C        -0.81811054702889    3.38361143233982    4.39189464381761
O        -0.84526456040074    4.49409310557041    4.12879452379388
H         3.53819773849643   -2.53799681881711    3.09888801076812
H         2.52229244593393   -1.19575570088793    2.56551764722679
H         3.36645950711863   -2.18800641083766    1.37415542158205
H         2.00553355131873   -4.16872654542823    2.00953184386689
H         1.13408975491850   -3.19579666780188    3.22019972831805
H        -0.43623650807820   -1.17928531876008   -0.59595125894538
H        -1.47826028525984   -3.60126364489828    0.05571919511528
H        -2.32778541287089   -2.54054121733955   -1.07802812483508
H        -4.02259649287850   -2.97580995781509    0.62913378468308
H        -2.83249788676773   -2.76548570281826    1.92180902515452
H        -3.87726733002765   -0.56645664717172    1.77887060076735
H        -3.87572974469965   -0.62824369390038    0.01621505725561
H        -1.87449833507254    0.56361066872732    0.24747960569920
H         0.22532267007875   -1.07613461084796    3.43400877497614
H        -1.30094831662360    2.88249622248150    1.37426145305414
H        -2.96642531994732    4.58886568063957    0.74347290838163
H        -5.26236491667809    4.46868128162033    1.64100479291768
H        -5.89192273049040    2.62582217824422    3.15704451652140
H        -4.23020867654007    0.91919160505143    3.78805660428089

