89
CSD_code = DOLZAI | q = 0 | S = 0 | Stoichiometry = C39H46AuClN2 | MND = 2
Au        0.92543505659152    6.01853935948529    2.23934968016594
Cl       -1.31789613882321    5.77398524516857    2.30535260233867
C         2.94134674244660    6.24364195149122    2.18380843309419
N         3.62413759569688    5.90717594342533    1.08691043238358
C         4.87931238137658    6.51341826872905    0.64465325098922
H         4.99656328311825    7.46715738684655    1.16579780343478
H         4.75071866539433    6.72458209824541   -0.42187152341301
C         4.97593788639845    6.41709888020170    3.60770033753861
H         5.26926103241716    5.50817179110162    3.07586940750138
H         4.95735729544991    6.19148838451342    4.67882290003802
N         3.59485843494867    6.73066725834294    3.24160039051828
C         2.95801964449573    5.08904117347228    0.11693706577868
C         2.97807620637466    3.69943955581963    0.28876700912607
C         2.38510132506325    2.90627212173217   -0.68408626355676
H         2.38074148818260    1.83402906893648   -0.56852461361262
C         1.79312285970284    3.46991134683432   -1.79682139148990
H         1.34387361204725    2.83743152762333   -2.54778886145005
C         1.75034728210635    4.84279850945469   -1.93429767429954
H         1.25538744922654    5.27394590742814   -2.79022131508602
C         2.31737553021042    5.67580373532883   -0.97913662436477
C         3.55762906498531    3.05459852763156    1.52712301468706
H         4.14178331384461    3.80120843542091    2.07501402611554
C         4.48749893174395    1.88119722419636    1.21281029061948
H         4.94756784949453    1.52478611358145    2.13235219658907
H         5.27784884417199    2.18222650521950    0.53086962174906
H         3.94149427578917    1.05337011978615    0.76917238074547
C         2.40977311773770    2.58535851052249    2.42578587903476
H         2.80070176410957    2.18183820389703    3.35769059856763
H         1.83157029986724    1.81091510415492    1.92832917972065
H         1.73916589893701    3.41316435244552    2.65303500538170
C         2.17438509262343    7.17371360369322   -1.12494416548323
H         2.61457649060592    7.66401234992872   -0.25177621554973
C         2.88585697061494    7.68115035435560   -2.38301852565008
H         2.81915345536413    8.76552745239968   -2.43655184318076
H         2.42706864066653    7.26700602753468   -3.27706913407178
H         3.93871208781657    7.40211510549372   -2.38500119870735
C         0.69264925160229    7.55837657603640   -1.16436372883239
H         0.58909582080290    8.64116599722134   -1.15833683289327
H         0.17263912232025    7.15675880851044   -0.29663177615834
H         0.20998258031895    7.17333075171686   -2.05814257686153
C         2.81825204027046    7.37956356825412    4.25682328031118
C         2.52763078599798    8.74094509505551    4.10577411134250
C         1.82047040851896    9.38047376616432    5.11463720568098
H         1.57594983695553   10.42597665512569    5.01431019337093
C         1.41987604397917    8.69580750352765    6.24482417961304
H         0.87884698870665    9.21085121326634    7.02446954689766
C         1.68770912083176    7.34703632722830    6.36549674367190
H         1.34289762116035    6.81481960834041    7.23806557950627
C         2.37587949520471    6.66206612048419    5.37288715172678
C         2.90486915620526    9.50355918587793    2.85621239367289
H         3.63948846674605    8.91797165406084    2.29365008485524
C         3.53144631370945   10.86711099612588    3.15569456485717
H         3.92311701263661   11.29849101652357    2.23675700245171
H         4.34955645351915   10.77385291106967    3.86453658613322
H         2.79635151666536   11.55645497429754    3.56177108807298
C         1.65858497105988    9.68289663145423    1.98463188154062
H         1.91848418723813   10.17769154251610    1.05109598199397
H         0.91827305583161   10.28665298533866    2.50347525814633
H         1.20641812646987    8.71763061058723    1.75955652646556
C         2.57137476978222    5.16881036330252    5.50383799945062
H         3.05548422707540    4.78899606532690    4.59940352654002
C         3.44891886938113    4.82498626977703    6.71127443842825
H         3.62138479856662    3.75172808189974    6.75198350419233
H         2.96463663272907    5.12722193726783    7.63636977915965
H         4.41460793328202    5.32543053677431    6.65769359513613
C         1.21390692189392    4.46954120369988    5.62203580205603
H         1.34807701791998    3.39041860814705    5.59931591845012
H         0.56647405596072    4.75508844568244    4.79527326816665
H         0.71554699747003    4.73238843418981    6.55086284170208
C         7.15941529479622    6.09807190999709    1.64496966821157
C         6.13375188025510    5.69348688143298    0.78634813490074
C         6.31850975558585    4.58087509249389   -0.02396835240447
H         5.53610690836743    4.30063186427656   -0.71490565267291
C         7.48759516637269    3.84493759148284    0.03995383751702
H         7.61655688563904    2.97948323597196   -0.59282602506256
C         8.49820685275682    4.23246405859741    0.90376843077504
H         9.41566942030917    3.66580938454437    0.95489051602743
C         8.33725784119075    5.35709286530928    1.69046156393862
H         9.12696836920108    5.66994150476997    2.35789337854930
C         7.04906526916823    7.31296887709531    2.47834182356156
C         6.01124475453330    7.48985043447330    3.39751637504818
C         5.99483362147813    8.62251784536584    4.20108824877284
H         5.21186260809192    8.72939294833355    4.93835966641149
C         6.96796456296378    9.59640502894155    4.07219727398900
H         6.94133874459333   10.47388555572621    4.70096958530319
C         7.98652520392432    9.43308585151327    3.14824452213731
H         8.75223068928932   10.18709440890711    3.04511992800122
C         8.03057685309667    8.29408747115133    2.36702023850022
H         8.82887498677524    8.15683524032805    1.65196956344271

