56
CSD_code = DOMBEM | q = 0 | S = 0 | Stoichiometry = C21H27O6PW | MND = 6
W         3.15666931768173    0.18306483681090    1.19419781512782
C         4.67367683384334   -0.61368168897828    0.16224364489993
O         5.55939806782936   -1.08435164708194   -0.38415794361152
C         2.58740825389893   -1.61450976974655    1.79469002806959
O         2.25767382217388   -2.65107366341010    2.14661172659523
C         1.66476985486046    0.93007432075300    2.28881750899282
O         0.80326580975425    1.25991176551679    2.96606125412640
C         4.27465407848744    0.13707982569777    2.84992341978444
O         4.79600773692425   -0.09773949043659    3.84148494297025
C         1.87189843562001   -0.10155644361072   -0.31429145727445
O         1.06492105002502   -0.44401204428376   -1.04740317367082
P         3.93683407732415    2.45731194450884    0.33632012078407
C         5.29087857883580    3.22029448701928    1.42873865148445
C         6.41703854547251    2.17955462866798    1.39431841617741
C         4.77683776509653    3.32371098981539    2.86969439530423
C         5.83810192360422    4.58721456847709    1.02083829634624
C         2.57745243868692    3.75332520468097   -0.01449430160806
C         2.98147375545069    4.85002707109400   -0.99984907888052
C         2.11901066894978    4.37276800254293    1.30389814141278
C         1.40407300303908    2.98499819808470   -0.62446633310728
C         4.62231539595500    2.35289000842120   -1.36666011552066
C         5.62434957347500    3.19967918179341   -2.12260359185997
C         7.09227232910373    2.75193313132148   -1.99598789146110
C         7.71103619560842    3.17781216319496   -3.32497720494939
C         6.65262912009221    2.79689139909782   -4.36062713866062
C         5.31873854440216    2.91674588973657   -3.60943575067603
C         4.51568163354668    1.62537192192805   -3.58554911315828
O         4.28542822462872    0.90891141132055   -4.52766622639028
C         4.07589848799648    1.44572904700074   -2.19780487414981
H         6.67708762058146    1.90442485010219    0.37564016668127
H         6.11747794923353    1.27332248115333    1.91744677471432
H         7.30696026219489    2.57236471644606    1.88424082176128
H         4.09581316382475    2.50644785675797    3.10811275302988
H         4.26231248515944    4.26284176408526    3.05010955938474
H         5.61777449320940    3.27054382872844    3.55958725152259
H         5.06667727754996    5.35219278430962    1.04902873801821
H         6.29117951601285    4.57395521851273    0.03623905853975
H         6.60870343467118    4.87735652812831    1.73543674040984
H         3.87919811738113    5.37684303982874   -0.69272958084412
H         2.17428759529514    5.57981903945035   -1.06027584933218
H         3.13189376082308    4.43933331716550   -1.99529056711954
H         2.82390342338537    5.11853311773666    1.66116049883105
H         1.99134757057555    3.60832154234755    2.06828892187770
H         1.15869573337888    4.86660831084402    1.16039377270741
H         1.70976279021984    2.44352712584634   -1.51874718977508
H         0.61828063982216    3.68323252411076   -0.91043545390334
H         0.98429150841570    2.28111606379283    0.09253469766442
H         5.54507298604797    4.26142649155527   -1.88970672130264
H         7.13481057049671    1.66451965557888   -1.90714029378352
H         7.60882476775433    3.20041687005560   -1.14941769609520
H         7.86839853714629    4.25821717011043   -3.32801344483165
H         8.66822437050304    2.69271296304191   -3.50760664800072
H         6.79035864020525    1.76720730838401   -4.69372716467353
H         6.68898625630880    3.43889760765965   -5.23875456943749
H         4.68216162064696    3.69413434816190   -4.03983676116385
H         3.39942138680924    0.65290822614362   -1.92540198197687

