70
CSD_code = DOMBAI | q = 0 | S = 0 | Stoichiometry = C27H35O6PW | MND = 6
W         9.87687146627618   11.55945675026341    0.91937004497329
C        11.49579326080267   10.76354052351188    0.06371287919814
O        12.41038693593557   10.25090465582583   -0.39330845447279
C         9.38199171388735   12.49650146915599   -0.77353268926571
O         9.00951897281891   12.90827480975624   -1.77336747884109
C        10.21689567297847   10.40960999224547    2.51609000838483
O        10.30020901984797    9.60587945134641    3.32688750550801
C         8.26837987715692   12.30240570811207    1.84032922014015
O         7.33352706999950   12.67786402976679    2.38121309253877
C         8.79284495862450   10.03069513862004    0.27846672319027
O         8.16776828074598    9.14531218382980   -0.08876064656431
P        11.23767105682749   13.52064476610730    1.69825514508190
C        14.49759723704735   15.12585392512631   -5.02175214937960
C        14.58401186575055   15.34128798168199   -3.51997174977867
O        13.49333933430492   14.66511816218366   -2.91809817036899
C        13.42553900604528   14.65698278696484   -1.57318027804540
C        12.23299307523483   13.99671481694636   -0.94351885260193
C        12.45268196421543   14.18451631852514    0.54092445485209
C        13.62753969406551   14.84142714857062    0.68996878158192
C        14.52376738514032   15.34954604871169    1.77371768162811
C        15.42862088232854   16.35259403157855    1.03637978174332
C        15.53065303186564   15.84352656108808   -0.41158582825023
C        14.22300610173081   15.13554812225412   -0.59689372455671
C        10.22627194095490   15.02632724443804    2.15405931085845
C        11.03555453516178   16.20622794713674    2.68683770923310
C        10.10753060255760   17.36400783704316    3.05306324352866
C         9.27981043304490   17.79929121958856    1.84884443378847
C         8.47895342423615   16.61975988287240    1.30727481756659
C         9.41513930994608   15.47281215362943    0.93805012002750
C        12.27013663154805   13.22314553750817    3.21188586131284
C        13.19342494219999   12.03875435300673    2.92868046139439
C        14.04166203616777   11.70324702137559    4.15112281793907
C        13.14146258329091   11.39426177703363    5.34285209168202
C        12.24429901440851   12.58947150587929    5.64566179885531
C        11.39180351160687   12.95152643265044    4.43125134600000
H        14.55540205269324   14.06497838026207   -5.24874223975946
H        15.31445781306736   15.64272443822818   -5.51695150515486
H        13.55242062419583   15.50834561001471   -5.39706496371441
H        15.52902880795885   14.94709748814100   -3.12632542926305
H        14.52518122734062   16.41187534337266   -3.28351456598628
H        12.19480310956219   12.93829481958878   -1.21161105015651
H        11.30372082863094   14.44628264073574   -1.29762732288536
H        15.11872974634001   14.52252112402105    2.17141817258175
H        13.99823011644512   15.82315027064466    2.60101258842765
H        14.94935800005181   17.33331750021080    1.03809716893676
H        16.40488288253624   16.45194782421280    1.50889645318636
H        15.70059073888904   16.65812076827070   -1.11452198346479
H        16.35868277547335   15.13416307775329   -0.50565412002491
H         9.52617190695985   14.68314113374642    2.92809925093819
H        11.60400826619981   15.91609570565092    3.57211988109413
H        11.73721558215749   16.53287639702384    1.91603683814900
H         9.43745229586801   17.04904779393616    3.85673245713959
H        10.69946267308380   18.20434962230983    3.42266544259057
H         8.60678936425283   18.61039590338806    2.13319881857511
H         9.94539694570361   18.17406828830631    1.06762855633624
H         7.90738757728133   16.92653925112193    0.42909845095857
H         7.76997538380363   16.27980133213249    2.06561611731646
H        10.09931914110741   15.80999926705815    0.15497001688753
H         8.83346168333446   14.63255857806080    0.54767612414796
H        12.88395064052717   14.10893208307362    3.39865574572601
H        12.58902818151009   11.16562965191622    2.66396832829117
H        13.83284005643964   12.26928931425665    2.07221395359963
H        14.68097726462622   10.84586984965076    3.93219881146959
H        14.68822915897908   12.55060618462793    4.39460768535388
H        12.52249631289236   10.52475724876761    5.11320116252709
H        13.74771075293045   11.15329061319908    6.21826240337484
H        12.86571535958371   13.44647136131787    5.91972072443291
H        11.59493782249358   12.36370055847815    6.49380852714693
H        10.78921542634108   13.83205852850345    4.66603909446030
H        10.70571265199348   12.12966375367396    4.20744109787722

