74
CSD_code = DOMFER | q = 0 | S = 0 | Stoichiometry = C31H39ClIrNO | MND = 8
Ir        1.38778492314010   18.64685600804954   12.91179049822002
Cl       -0.65923054338889   18.07280476874480   13.91391611727354
N         0.24620751427791   18.81391009983626   11.21872253729184
O         1.64488398998013   16.62151812733414   12.46365070850436
C         0.94288181975772   15.89015676951111   11.67228188753139
C         1.09626386534578   14.46614480585011   11.63022798062224
C         0.31160185174164   13.74287993671062   10.76222595576486
H         0.41576770614764   12.66956499809631   10.73548927025303
C        -0.65111061524806   14.29386689514860    9.89757372844500
C        -0.79876124549601   15.65592409787857    9.91932907477331
C        -0.00022808494565   16.44007181827912   10.77391476190100
C        -0.25930496741708   17.81910567233866   10.55905795490481
C        -1.22882559951308   17.95449748856005    9.41353425677793
H        -0.70156768689706   18.32846872445201    8.53349810352971
H        -2.01777555361135   18.66762707033939    9.65601804331727
C        -1.76824473639023   16.53233082479261    9.17258950305524
H        -1.79263251099056   16.29210057411375    8.10531798863007
C         2.10419038098301   13.80562807379907   12.56074407488226
C         2.16595416800521   12.28405877438876   12.39573550041155
H         2.46066868168072   12.00793987450930   11.38553845321551
H         1.20920698735265   11.82287338641905   12.62916038449980
H         2.90749193041568   11.88174943581737   13.08338455904542
C         3.50016049541907   14.37094271593377   12.26498858330511
H         3.78916557087527   14.14251342089083   11.24049402390817
H         4.23440142931322   13.93442232198684   12.93938680755100
H         3.49907656622043   15.44745923161713   12.39648930803685
C         1.70885745227445   14.11219026363731   14.01167946986353
H         2.44448000475293   13.69781911348421   14.69874795677443
H         0.73794866687341   13.67521655395093   14.23516497575095
H         1.64353590243183   15.18395065505348   14.16838726210095
C        -1.46651925479362   13.39014756530377    9.02035753729364
H        -2.34460173918070   13.02928387710864    9.55714461576793
H        -0.88197711425694   12.52372076965379    8.71772844331760
H        -1.80524241899898   13.91188777154020    8.12856961955190
C        -3.17549532242468   16.37836787701430    9.75393943893078
H        -3.52597080240221   15.35683225859405    9.63712776105084
H        -3.87248530183837   17.04420509095726    9.24894366784627
H        -3.16139250958753   16.61937635130646   10.81428818904706
C        -0.10304157201875   20.13375614301644   10.86444632882415
C        -0.96405402875558   20.86339657071221   11.68088446264717
H        -1.35820711589698   20.39447609485869   12.56973680953257
C        -1.29867802816906   22.16068831259853   11.34075241280559
H        -1.96855817894685   22.72280173675108   11.97464076984005
C        -0.78378430050176   22.73954176836656   10.19109434775759
H        -1.04762261676176   23.75333261436556    9.92949154267508
C         0.07023074995958   22.01402471207165    9.37731587793085
H         0.47392318774410   22.46178054171578    8.48105167058794
C         0.41078237448426   20.71483356146773    9.70776440372635
H         1.08020311900991   20.14462786221769    9.07964527454303
C         3.32650842412074   18.74172481451649   14.04609563003637
C         3.49561586588025   19.45067812938141   12.80385695472075
C         2.64567638485629   20.59896966966348   12.83486596812983
C         1.86296051393021   20.53655836135055   14.02059956855402
C         2.31518544845937   19.39552504061477   14.78833929452042
C         4.16382148834173   17.60137556849270   14.52915137755074
H         4.81947538307496   17.94138025590667   15.33284573443658
H         4.77948436209528   17.20431279653260   13.72719091277502
H         3.54173493986788   16.79568809793907   14.91343657834782
C         4.56949505774324   19.18854213417998   11.79761471474159
H         5.52067794740905   19.59471235896893   12.14783892097417
H         4.33074836150263   19.65557555485429   10.84503662197061
H         4.69563915735748   18.12055520816716   11.63233665183655
C         2.68451085060252   21.73017304755587   11.86194207290817
H         1.76395325258333   22.30740308051476   11.88844512312873
H         2.83742459122354   21.37764397734656   10.84421202707197
H         3.51305346507876   22.39382495703210   12.11681578139213
C         0.94663402116631   21.59081863728467   14.55216824306752
H         0.55085515107192   22.21006439259043   13.75076434100529
H         1.48567976665821   22.23266472306868   15.25210479440834
H         0.11350567703391   21.13434825455709   15.08233673119326
C         1.89274252240450   19.09828573907626   16.19034532181566
H         2.19571837224545   19.91409633218042   16.84844544223581
H         2.34413374129078   18.17506864594095   16.54297747731010
H         0.81010776426951   18.99693624114107   16.25037081205846

