63
CSD_code = DOMJUL | q = 0 | S = 0 | Stoichiometry = C20H32Br2N4O4Ru | MND = 6
Ru        2.66743902484946    8.76514371675803    2.46551489102769
Br        0.44058325442225    8.60771460425424    3.53831091244382
Br        3.55393412151990    6.59431174265980    3.26537619038934
C         0.99566055742217    6.86472230655409    0.29933062385175
C         1.53892498944004    6.36276759082553   -1.06932340165380
H         1.66575521650284    5.27750956638089   -1.09052913217089
H         0.90661973762873    6.66860337819699   -1.90785415460858
C         3.02136065433362    7.69864696689153   -0.12693673753821
C         4.23519281724988    8.39519307946876    0.14122174775954
C         6.19799985551768    9.36741864180716   -0.11969424310635
H         6.19716358272847   10.33920296360300   -0.62810177653006
H         7.18139406753558    8.90757514381745   -0.22628233276508
C         5.74438874615825    9.47599264611177    1.36071005770288
C         1.55700620628406   11.46103811928496    0.82804066612784
C         1.89702793244824   12.92649914834961    1.20936735787350
H         2.70608653976246   13.33976056941575    0.59478930595131
H         1.03132447468530   13.58780210725208    1.15496619754603
C         2.50612337005409   11.56367744148531    2.83322105590104
C         3.03001648555613   11.06796630715585    4.06218892791984
C         3.66925247740762   10.95655544770880    6.17151072702580
H         2.95729824763701   11.03726333908421    6.99671087822294
H         4.65830456780877   11.27175471957027    6.51612703479099
C         3.68353898373071    9.53283574937317    5.54458225888847
C         0.82478689900516    5.70661574324558    1.28395027851350
H         1.75820446393955    5.16145441522795    1.40843384443380
H         0.06240721807265    5.02789144989397    0.91005825843299
H         0.51061943521626    6.07998320814618    2.25564211816589
C        -0.33110495206201    7.60044557464460    0.12326208307988
H        -0.22896205350874    8.42527313275719   -0.58055958782637
H        -0.68196494814328    7.97145741417302    1.08257197235112
H        -1.07098309246675    6.90450211472528   -0.26427205154708
C         6.58724016438392    8.55382806304293    2.24501769555179
H         6.13999255644619    8.47033341927792    3.22937604609056
H         7.59687026318485    8.94614596602358    2.33934395944144
H         6.62754385198870    7.55502840908961    1.81465701271980
C         5.77727978982784   10.91314271995308    1.87065076667748
H         5.11994576813267   11.55076755710564    1.28077480962704
H         6.79118619988616   11.30133870637904    1.80501497703661
H         5.45578326892016   10.95016110687063    2.90853056502069
C         0.04447389366531   11.23287283330089    0.88743074491661
H        -0.35395829119844   11.60338658867638    1.83006389077240
H        -0.17538091027435   10.17228207964535    0.83131442049793
H        -0.44408048987822   11.74694787283780    0.06330990178637
C         2.12189826891741   11.07224382921359   -0.53419426921831
H         3.20702936630146   11.16559311673740   -0.54716683023684
H         1.70658353753559   11.72189938808478   -1.30120999992618
H         1.86019375102932   10.04362411271694   -0.76886350389310
C         5.07642341748882    8.91237198290229    5.63191907799061
H         5.81927326265061    9.55489891249844    5.16124122400276
H         5.07865037296516    7.93324055739863    5.16026250171409
H         5.34103170404689    8.78674971180805    6.67889490630613
C         2.66138552891946    8.61969327647998    6.22358291105518
H         2.63432699590836    7.65071904415858    5.73093738618303
H         1.66497818743982    9.05510540733448    6.18496808938922
H         2.94642498832200    8.47281556293189    7.26228889771450
O         2.81984970932948    6.96791644349882   -1.23063214171591
O         5.23227334918166    8.52945696158081   -0.74685304328655
O         2.34217846936399   12.86764811100274    2.56088751406166
O         3.25438408603905   11.84047875220141    5.13248595924501
N         2.07170198877916    7.75719500222745    0.75161144238739
N         4.38547872570683    8.94550737175050    1.30286390433736
N         2.17920750509205   10.71162604441050    1.91557209292168
N         3.27973183916151    9.80080274003780    4.15738512017609

