90
CSD_code = DOMJAR | q = 1 | S = 0 | Stoichiometry = C48H36AgN2OP2(1+) | MND = 4
Ag        2.62830090905655    1.96525388368064   13.68534374835421
P         3.67239694924759    1.29351117688719   11.41459316139303
P         0.37031335315039    2.98647654115045   13.44546469161265
O         0.93788163795248    0.84333427984168   11.77278430044189
N         2.63752583427703   -0.22702815267959   14.70036547378807
N         4.64310627451068    1.64588994959616   14.83978335507056
C         1.68010159175067   -1.12550189840447   14.63763067929960
H         0.69749837606694   -0.75914743744656   14.37086169155291
C         1.87578504806723   -2.48278232344012   14.90281364770075
H         1.04876958116461   -3.17039598266557   14.82730401455373
C         3.12975451598673   -2.90749743816640   15.26468105090942
H         3.32893098453867   -3.94582302896192   15.48530843526264
C         4.17067191569434   -1.96966499541305   15.35605221184882
C         5.49089973980062   -2.34184186060668   15.73543183647606
H         5.68105132079283   -3.37924431478899   15.96616767329511
C         6.47893834761332   -1.42030736162177   15.80237220578522
H         7.48211233088946   -1.69925362198451   16.08846676262921
C         6.22521069646063   -0.05343860872416   15.49573208839128
C         7.23681244026820    0.91961596647514   15.54526558759383
H         8.23990205024658    0.63111279920056   15.82292762822753
C         6.92789974835500    2.22338280471043   15.24384879434508
H         7.67569725942472    2.99937244089685   15.27349355401556
C         5.61091547028740    2.53669153322197   14.90313080635062
H         5.33440953968784    3.55929582288648   14.68213724705199
C         4.92470005220783    0.36069557137438   15.12434541812172
C         3.87393365600915   -0.62096761349652   15.05186981764081
C         4.15268345186320   -0.44826164715725   11.64330042549513
C         5.42136977031019   -0.71450434875415   12.15593401614527
H         6.11210841903074    0.10255909906251   12.32129491014094
C         5.80517965503879   -2.01277713717590   12.42946468736415
H         6.79776320700018   -2.21233702024436   12.80494245406324
C         4.91773259535905   -3.05683459184242   12.22168131803248
H         5.21738409032085   -4.07130276210315   12.43593741946456
C         3.64948250121395   -2.79667720920179   11.73101101362384
H         2.95780509619214   -3.60943178309363   11.56531571032219
C         3.26589032225433   -1.49932487746585   11.44133545475069
H         2.27979204622138   -1.30580799140141   11.04595557379738
C         5.15404890743670    1.96997307484869   10.60190438278438
C         5.53036594994959    3.26872564682830   10.92640068862313
H         4.94555892281718    3.82271947675694   11.65189759121763
C         6.64147582178736    3.84289963321237   10.33482290406265
H         6.92993261011175    4.85170056110780   10.58947341068951
C         7.38513770081736    3.11838215804774    9.41807550471180
H         8.25344407833609    3.56271633543550    8.95608752763690
C         7.01917536717981    1.81999430475042    9.09621240782509
H         7.60185716194576    1.25624207956773    8.38314218580300
C         5.90878993901986    1.24294355479074    9.68404195221147
H         5.62734885587502    0.22779952644675    9.43927347531544
C         2.46551769992769    1.21896258185560   10.04868882395148
C         2.75571869778445    1.47479464542524    8.71638458910524
H         3.77495926243979    1.66613412704763    8.41675003573009
C         1.74335706412264    1.49283000613362    7.77244829183885
H         1.97934512259897    1.68179647997245    6.73704830841240
C         0.43149130688659    1.28145714364955    8.15751841998847
H        -0.35991372435672    1.30769572339564    7.42487357411139
C         0.11731788685714    1.04696285979549    9.48571753060966
H        -0.91041575895037    0.91167388073803    9.78732663463210
C         1.13206907823792    1.01204969627035   10.42730820604605
C        -0.32142240321198    0.62805082397776   12.29164049434569
C        -1.07540759189704   -0.49731547623515   12.00375216175151
H        -0.71045963984551   -1.22672993829375   11.29555887422500
C        -2.29406186357452   -0.67318423287705   12.64137152521923
H        -2.88934941097466   -1.54498510225966   12.41867993861839
C        -2.74505761754832    0.25916438203870   13.56078800314492
H        -3.69444366031343    0.11352142473533   14.05229704993066
C        -1.98660493727342    1.38149712410029   13.85335804342833
H        -2.34202761207851    2.10674057059713   14.57061245495427
C        -0.77165321745591    1.57906221275731   13.21317124990573
C         0.19977715729585    3.74797025830148   11.79870359839768
C        -1.02951733372281    3.81369328019746   11.14807882230704
H        -1.92224295331610    3.45703504465975   11.64456410985172
C        -1.10246487876759    4.33176133224565    9.86820454440640
H        -2.05628004743081    4.38419876725938    9.36505679793535
C         0.04385201994855    4.77766115195539    9.22889807223958
H        -0.01838757779187    5.17251694442973    8.22656969486195
C         1.26760924945565    4.71917790473907    9.87474848372417
H         2.16069772004422    5.06700729835516    9.37797244122424
C         1.34378309781702    4.20742155810996   11.15693004230591
H         2.29732264682095    4.15278782545156   11.67534401351311
C        -0.57811179856736    4.05831541392923   14.56486156846772
C        -1.17159390423273    5.25179741058561   14.17297614765541
H        -1.09819915004939    5.58527178812769   13.14777729844372
C        -1.85573382826482    6.01421083185360   15.10452695419500
H        -2.31979293253051    6.93999435963394   14.79949367700203
C        -1.94446432736504    5.59625433103373   16.42189292651398
H        -2.48038467477461    6.19488537518701   17.14236551753104
C        -1.33555047094008    4.41543479075883   16.82002855588578
H        -1.39487586656840    4.09570390189617   17.84958090510405
C        -0.64543835205347    3.65353771942655   15.89751890466756
H        -0.15110857570080    2.73614956268803   16.19693181736236

