68
CSD_code = DOMLOI | q = 0 | S = 0 | Stoichiometry = C33H27ClN3NiOPS | MND = 4
C         6.23023983245125    2.64375521712480    8.02947364962561
C         6.78653698646416    1.36102277855879    7.81476195526519
H         6.42428094336130    0.55564597916013    8.43599924238444
C         7.74327506016391    1.14176840310994    6.86030914238787
H         8.15575980403153    0.15621457276135    6.70971735647425
C         8.18293213609402    2.20750038185473    6.07330311901645
C         7.67847941394557    3.47034882451935    6.24707148822840
H         8.02988235818808    4.27955122245722    5.62595635329930
C         6.70283540477278    3.72341225234189    7.22681435352588
C         6.19703006276784    5.05323834328106    7.39767821087572
C         6.75007519640851    6.13722759727721    6.54025698501856
C         7.98157972940205    6.70469338557828    6.84095490161139
H         8.54211242810376    6.34253725310985    7.69042444814431
C         8.48337420858466    7.72674259733078    6.05493566147087
H         9.44208743332051    8.16411272748343    6.29224676253441
C         7.76093384161738    8.18642745195731    4.96705609628809
H         8.15480647259221    8.98356152428221    4.35377116056242
C         6.53250809742060    7.62221352146530    4.66619108942420
H         5.96680888962736    7.97834269347880    3.81762548057214
C         6.02518973683801    6.60229454107443    5.45050916899909
H         5.06659837293758    6.16135037621397    5.22086299301819
C         4.07165031239167    7.11725007347225    9.09111224363604
C         4.28728569640429    9.44777235345790    8.37930980790100
H         3.53076343170750   10.13660302506029    8.00264252740327
H         5.00115349362468   10.00455792654901    8.99405447737706
H         4.81956684202652    8.99384341768919    7.54644913457514
C         2.56476718623128    3.43806596730201   12.38056347982194
C         3.01612493144206    3.43705530207870   13.69387916110625
H         4.01574373352090    3.09449641510422   13.92210037223284
C         2.18163602008233    3.87337197684715   14.70884136825124
H         2.53344584165845    3.86837683241788   15.73036891987432
C         0.90257672508672    4.31663946453965   14.41882564588831
H         0.25632655404090    4.65724621466792   15.21436760490319
C         0.45337759090565    4.33010864559950   13.10710366840593
H        -0.54143053459188    4.68365724011807   12.87947887541077
C         1.28220483759106    3.89663188912487   12.09139363073430
H         0.94988475100287    3.91364285720273   11.06157759763322
C         2.63754580858554    1.46562785074195   10.38174856126423
C         2.60085093904635    1.18240967007165    9.02211658185749
H         3.12894008306278    1.83047599457379    8.33566378032513
C         1.89916071850235    0.08323229934535    8.55992443482926
H         1.87465772533032   -0.13549481439962    7.50251259031082
C         1.22588939889310   -0.73350056371161    9.45313809358694
H         0.67723325602552   -1.59165008512131    9.09372145464559
C         1.24849832483483   -0.44645202419550   10.80914858648537
H         0.71651508125101   -1.07952749215775   11.50449313464764
C         1.94827249754975    0.65095219501115   11.27625660457952
H         1.95462729225637    0.88318494817670   12.33254330707113
C         5.06253912359467    2.19720425459198   11.76567654978205
C         5.20485950924357    0.86690055384167   12.13212587977622
H         4.40376828434058    0.16456329804099   11.95224605668930
C         6.38622559639430    0.44047624930874   12.71615368266928
H         6.49989602597020   -0.59620534059205   12.99833388754722
C         7.42280202655647    1.33279327444177   12.93238314822930
H         8.34278062953542    0.99136125315662   13.38353490772289
C         7.28676477958855    2.66139035780607   12.55903747718961
H         8.09989470630135    3.35460928972187   12.71715118341224
C         6.11118008962535    3.09000896154375   11.97496316947284
H         5.98901992688865    4.12443448840389   11.65469743467303
Cl        9.38656385746763    1.92313108788495    4.85689101540125
N         5.27658382593296    5.40454531067101    8.26326163520835
N         4.96888382402345    6.72833943177255    8.24731456216242
N         3.65147885742280    8.39432874145203    9.12737714602289
H         3.04049974749009    8.64528284582632    9.88848805724248
Ni        4.40045141308579    4.28241017579610    9.50723816895043
O         5.32142955655533    2.77192853266338    8.93439942211261
P         3.58589061747509    2.90216417191352   10.96889962616659
S         3.30899265496339    6.00869383775323   10.21247172610733

