52
CSD_code = DOMNID | q = 0 | S = 0 | Stoichiometry = C21H24Cl2FeN4 | MND = 5
Fe        4.79676660838129   -0.07534459158174    9.42395570553444
Cl        5.72367637429947   -0.16753716270274    7.45294922137883
Cl        3.88549148030517   -0.45502503427946   11.38247296342262
N         6.50737917950342    0.06947131699606   10.23344356953255
N         4.78790630013168    1.97014979381940    9.55764665664960
N         3.08797437717571    0.15712359137487    8.64172116937265
C         4.19231977265221    2.51592155293192   10.79133666235757
H         4.82746928533918    2.20826247772934   11.62467099658617
H         3.21268144572049    2.05479914699809   10.92664786066177
C         0.57215834407896    0.82959232709024    7.71297178896792
H        -0.41353607504236    1.09235817003134    7.36177959960115
N         5.15994973808343    4.73420013857574   10.89081094995356
C         4.04661078412544    4.01622555299958   10.79034694030645
C         3.98702452598637    2.35686901217088    8.38775482460025
H         4.59423102640672    2.18600453846054    7.49326154773895
H         3.67726950964606    3.40771144242233    8.41876129118621
C         8.18375500278923    1.61402954684101   10.91972757469365
H         8.55029857495600    2.62805281318888   10.93295401130485
C         6.21280409835328    2.32686293449969    9.47665485142496
H         6.38925313067523    3.34686662165772    9.83437904053311
H         6.53022512365551    2.23596961743678    8.43356470323573
C         7.00495402670341    1.31545145879235   10.26305514037258
C         2.15454779544456   -0.78817539132453    8.49842955335249
C         2.80844989009828    1.42381323405166    8.29153164212858
C         7.18225923641208   -0.92797081924854   10.80997668778330
C         2.79427999021844    4.61292697925088   10.68780683357296
H         1.90566229904121    4.00520357811606   10.61201187005926
C         5.09543805208809    6.05753415682728   10.89328644450143
C         1.56094809472557    1.79842824982825    7.83312911304176
H         1.36917637995088    2.82639436197970    7.56730635398965
C         8.37475328589261   -0.69779239529804   11.48081055799922
H         8.89694408258764   -1.52183892724500   11.94096882891152
C         8.87903051928328    0.59023053284047   11.54943828429500
H         9.79989490539894    0.79379063483383   12.07365846751149
C         0.88210792844425   -0.48037389849644    8.03887662766068
H         0.14676309678573   -1.26304823859995    7.93827643806346
C         2.57870307967856   -2.17149749545520    8.86417421867640
H         3.59375333571602   -2.34538043397548    8.49301408520040
H         1.90433143276058   -2.91761250173584    8.45475840504347
H         2.60104741376200   -2.25997688537748    9.95112104152835
C         6.56662873890260   -2.28167713969302   10.67893927452019
H         5.73049325046066   -2.36091966489414   11.37494073803883
H         7.28496357804585   -3.06894575850776   10.88733295136571
H         6.17151283284843   -2.40005733615407    9.66458686604562
C         6.39474192567549    6.79265271611165   10.99227325340865
H         7.18514536195636    6.10638972853777   11.28039718758010
H         6.32563548285132    7.59549549582893   11.72205504220246
H         6.64736411689473    7.23305993560270   10.02847959368843
C         2.71613718102433    5.99689648251204   10.69509748386112
H         1.75837385908523    6.49158827628755   10.62176115416858
C         3.88178925256381    6.73444892061129   10.79778537011718
H         3.85946096747056    7.81329833733488   10.80720856226814

