82
CSD_code = DOMRAB | q = 0 | S = 0 | Stoichiometry = C27H47FeN5Si2 | MND = 5
C         9.96545357060777    8.91340522876594    6.69500068600080
H        10.79864492348475    8.27345771668220    6.89801176752136
C         9.96449892993447   10.19330360487963    6.26393200702763
H        10.77990718685481   10.84836565181624    6.03718538060345
C         8.02399166800117   11.70747209867950    5.74338806219482
C         8.60108598453547   12.87342581852312    5.27496398542894
H         9.67221299340354   12.96848060552301    5.19788214762650
C         7.76445916393423   13.92404393021713    4.91209799294667
H         8.18309437358681   14.84781849486384    4.54640103416617
C         6.38545883294200   13.77771048085100    5.02288270296690
H         5.72087431963253   14.57955076393583    4.74422365231002
C         5.88936618732540   12.57564420641739    5.49273639021557
C         3.38918861791597   12.85490762310720    5.46106960590370
H         3.31490006854214   13.83403795491799    5.03539009397254
C         2.42367298047399   12.00785475768945    5.87861220291178
H         1.36248691436571   12.14488029766886    5.87552940398898
C         4.37919712871899   10.97682484789588    6.23425149773773
C         7.81975419525638    9.52511275805388    6.50680994790029
C         8.24962466095247    7.16416639290362    7.19190806809997
C         6.81228555457811    7.18304805736906    7.70890357362577
H         6.76157915367078    7.69956157194377    8.66267874316308
H         6.45189471473575    6.16610110646928    7.83823567092065
H         6.17123960606621    7.70794928617939    6.99735092544340
C         8.33932267240940    6.30659450492618    5.92338076825524
H         7.67523018991593    6.70689023960053    5.16119416486592
H         8.05512474048178    5.27979310610957    6.13793902970855
H         9.35414494214078    6.30908202769613    5.53072342488665
C         9.16569137430995    6.59917876452446    8.28388024049712
H        10.16108448252552    6.38347936076136    7.90457812439027
H         8.74678459138799    5.67192853187269    8.66578988028458
H         9.24906735650910    7.30460710701728    9.10761991704558
C         2.33063910266597    9.76519737132432    6.98165956142096
C         3.20318035647560    8.51196266519058    6.93832470396821
H         3.31064336912067    8.16262068922093    5.91580180257960
H         2.75068440278831    7.72454735234551    7.53496667840300
H         4.19637366897670    8.74067317575894    7.33133950219316
C         2.05755393127377   10.16439831997203    8.43726039034156
H         2.99810208194209   10.34669593471367    8.95123459332102
H         1.51798491546138    9.37459545416576    8.95322913085716
H         1.46158394584095   11.07389090922055    8.47881167867069
C         1.01294591569716    9.48247011712530    6.25072972705069
H         0.28059491874860   10.26741046057232    6.42051338078822
H         0.59014144809695    8.54895907826073    6.61262347572950
H         1.18736344167585    9.38986550076428    5.18108708482591
C         5.69072765392891    9.17250362140446    4.63467743397448
H         5.83824129356125    8.10851016197428    4.85545147505738
H         4.63039722269071    9.27872116107414    4.38916454645462
C         6.19790693059677   11.31301479373719    2.39149963272327
H         5.15711811157974   11.56071159643718    2.57432777927166
H         6.36835197446522   11.38579885164459    1.32146639002082
H         6.80395610582331   12.07317749814259    2.87197966487029
C         6.07941238448248    8.33668410958603    1.66973305102417
H         6.32741168682435    7.31285716405490    1.93350239319327
H         6.56472685658337    8.55608120990203    0.72321460846148
H         5.00739960280027    8.37820794388354    1.50337622189689
C         8.52143036642467    9.41430368271691    3.14701992982647
H         8.97653990131959   10.35190066723066    3.44755026845966
H         8.94146195199242    9.14247736154989    2.18306125456539
H         8.82784782800867    8.65623607000465    3.85927215755920
C         6.12736394177755   10.48711646840590    8.44072075978585
H         5.26070953035396    9.95538666939972    8.85150740297033
H         7.00575629958531    9.97767920499664    8.84681344805021
C         6.05180881767852   12.08055054917799   11.10418615347781
H         5.11486119442300   11.63042886596705   11.41874749255624
H         6.12005668308031   13.05555138243513   11.57774308677475
H         6.85549285304518   11.46835443408438   11.50161871672516
C         4.71627758836068   13.36191623968737    8.68191435764501
H         4.94986061791660   13.91213757800873    7.77699072571506
H         4.50783318956854   14.08966809695797    9.46063453591455
H         3.80163264149393   12.80747391469944    8.50368974940356
C         7.79692840111357   13.11900733283513    8.80519111277273
H         8.63844668921835   12.43381083860107    8.82590747281395
H         7.99501063220293   13.90245338496275    9.53062642331289
H         7.77469564148367   13.57957840000304    7.82365957908322
Fe        5.99644387908023   10.02369384647171    6.46087823570905
N         8.65736536435385    8.51860001708628    6.85138993263132
N         8.64786430253345   10.55588513977467    6.15297488024255
N         6.68792320804740   11.54880773681415    5.85379406715144
N         4.57946660164721   12.21377079128189    5.68366363187383
N         3.03369357060854   10.86360495378767    6.33665658997011
Si        6.61495312720514    9.56573693182794    3.04858763099092
Si        6.15881177617678   12.20903740289475    9.18827440430599

