33
CSD_code = DOMSOO | q = 0 | S = 0 | Stoichiometry = C11H12ClF3N2O2RuS | MND = 9
Ru        6.18062789638978    4.32746989232374    9.59337124570705
Cl        7.88524462181147    4.99828102816440    8.16579146097336
S         8.03764426670519    1.92675750988494   10.91887019678181
F         6.13511814234207    1.70399773768235   12.84176356200137
F         5.39557721949084    1.48717152464630   10.83293214609522
F         6.46436716257316   -0.13870613031220   11.76763866315256
O         8.12614511891057    1.22617020000079    9.67489726884179
O         9.01679380745316    1.69154289939574   11.93339167808520
N         7.69390295696650    3.45390803987979   10.72944816316638
N         6.09969244199806    2.80171688956130    8.42719223515119
C         6.43203163780527    1.18226142289134   11.64205038357905
C         8.09403307202866    4.36358053211699   11.77991202944193
C         6.87533120871843    4.92192106741521   12.56637045467765
C         5.82084358725030    5.23375616798851   11.53974173546228
C         6.02839117542112    6.28847313631926   10.62282306685489
C         5.21414240878570    6.39114493199123    9.46860916960512
C         4.18719365436246    5.46085636778838    9.23884147857023
C         3.92695223562461    4.45870697595069   10.21495793641779
C         4.69712614307632    4.37607944436402   11.37766072661624
C         6.37216442388454    1.87593782580023    7.80022955755857
C         6.68535270336755    0.73062484966056    7.01166987342227
H         8.77713045359487    3.83351898848313   12.44822634349063
H         8.63357931722445    5.19585836074968   11.31016772813497
H         6.51398962330819    4.17597323913220   13.27561690434861
H         7.18627573174677    5.81314730461380   13.11434352026924
H         6.80302780049452    7.02544365600415   10.80171624057014
H         5.37582004023178    7.20606302434347    8.77184069364955
H         3.53806452546301    5.55985814768557    8.37631875563173
H         3.08207935758441    3.79298629771830   10.08330785141611
H         4.45396564886994    3.65216292215116   12.14462436722464
H         7.51850117338809    0.22775453583873    7.50379561308291
H         5.82858430493990    0.06075304350039    6.95572229038299
H         6.98140613818696    1.04212816626351    6.01075665963532

