72
CSD_code = DOMTAC | q = 0 | S = 0 | Stoichiometry = C36H29BrN3PPdS | MND = 4
Pd        2.60105931077363    6.25450155476485   -1.27050741703301
Br        4.11931151857348    7.99222214984656   -1.96562233788641
P         2.38303696745334    7.23223600069184    0.73633838185760
S         0.81587576824050    4.77198651113909   -0.83563204288301
N        -0.05112671610734    3.08222191710584   -2.63039025695454
H        -0.67932667360010    2.94168093423061   -1.84932171314502
N         2.78271655313934    5.16557588204331   -2.95788393870277
C         2.84333004888970    6.10806113656314    2.08565345622826
C         2.52460648819423    9.98422858759802    1.33247328776099
H         1.46493954359179   10.03273197019251    1.12231428273747
C         3.19940365457812    8.77340169131417    1.24128998336777
C         0.69174464736989    2.14427915874716   -4.76325572246736
H         1.29478187075943    3.01443014715107   -4.95569526796336
C         2.80357925672082    6.48406445768665    3.42488109527516
H         2.48733887241987    7.48270835284709    3.69440136339023
C        -0.17348377789901    7.49751667781007    1.99850109947462
H         0.26020639071944    7.14056547825569    2.92123967553409
C         3.21697486317160   11.12769401675813    1.69096081299634
H         2.69253919313145   12.06936395176061    1.76244076202959
C         0.61099813988491    7.62284507976861    0.86113608435114
C        -0.05503253453459    2.07445359669292   -3.59123125413401
C         3.31483005216267    4.84721090479249    1.73310904169013
H         3.37929906732318    4.57957388888408    0.67364844781791
C         0.03831907500012    8.04759481366089   -0.33977150378975
H         0.66269120805807    8.11666410279111   -1.24079382124660
C        -0.11422997063456   -0.02561247663277   -5.41628519858799
H        -0.13174537469711   -0.84243971400994   -6.12171627199401
C         4.56844661886313    8.71761183339332    1.49097274226740
H         5.08925902732951    7.77345179661968    1.38875593871097
N         1.81639433245946    4.28430277244712   -3.27615755647685
C         3.49290246497086    2.25355927079192   -2.35334748070485
H         3.52546049374607    3.08310544797028   -1.65279616369803
C         0.89689501163833    4.02776805886149   -2.41001020276060
C         3.91695888010281    2.44907740651233   -3.68442769335614
C         4.57575556387915   11.06852404761697    1.94921527098465
H         5.11160449840537   11.96527638044436    2.22240270430539
C        -0.87726333480609   -0.08670058650426   -4.26186802451142
H        -1.49489725304139   -0.95051728416678   -4.06434393711706
C         3.96093837218526    4.94104710214187   -3.44322884692004
H         4.70434803538287    5.72863827924391   -3.37264889089807
C        -0.85004752221790    0.95339915904715   -3.35438263896240
H        -1.44157080408266    0.90017546239160   -2.45058428244675
C         4.27474340707260    3.72870800687650   -4.19771800923003
C         4.98636788874633    2.70346181986658   -6.26243704171188
H         5.41940814052185    2.81505145111570   -7.24560485931326
C         3.70593621060182    3.95185390471801    2.71151633800065
H         4.07102439960706    2.97323537659140    2.43681792891063
C         4.00962589851797    1.32105571841322   -4.53882254418187
C         3.19021437123787    5.58331843338605    4.39998102228071
H         3.15324569296030    5.86975199382330    5.44083522266297
C         5.25231894330081    9.86257563963401    1.84688865527458
H         6.31441052663462    9.81882399742556    2.03565552461643
C         0.66358203673510    1.09315261582329   -5.66006665021091
H         1.25600474503599    1.15503949078403   -6.56068006668813
C         3.63314142295055    4.31806826947146    4.04560702815606
H         3.93473193756367    3.62025322705756    4.81261423921343
C        -2.08377049956753    8.24892337537840    0.74860526271559
H        -3.13585279820070    8.48948522682877    0.70808388311520
C         3.06987744152812   -0.06826294010816   -2.80185307204585
H         2.70922702059193   -1.02545362683933   -2.45523876277852
C        -1.30455452513028    8.36622848501256   -0.39282674249746
H        -1.74823879168011    8.69468500852127   -1.32114849880079
C         4.84128835456496    3.83269121724221   -5.44835570728220
H         5.12870658145972    4.80418501662920   -5.82335785698943
C         3.55832980891057    0.06961042126638   -4.06974179483633
H         3.60904781523625   -0.78053476928950   -4.73486056614832
C         3.06507227776773    1.02794857444884   -1.92681793291719
H         2.72609526921630    0.89481332626907   -0.90936320833575
C        -1.52094283998044    7.81166451609031    1.93584499966625
H        -2.13517559788711    7.70943556679883    2.81860491240339
C         4.54750744831223    1.48099916529749   -5.83296335276571
H         4.61270558663358    0.61555157196016   -6.47693031724156

