92
CSD_code = DOMZEL | q = 0 | S = 0 | Stoichiometry = C37H49FeN3O2 | MND = 6
Fe        9.68271014209492    8.83029413859407    3.84722097264181
O         8.12693101200028    7.46842988412438    3.82974783211942
O         9.15552105514488    7.93131706507232    5.67272124058802
N         8.45224585062613   10.29137222397307    3.89463371354426
N        10.17376962494420    9.60803657390692    2.36243905739306
N        10.91042138652239    7.49531825683823    3.24395665195879
C         7.85986968118286   12.45891182171272    2.82900849517999
H         7.09458482336552   12.51713156705666    3.59888411950480
H         7.39377232802261   12.53295209760147    1.84792206485917
H         8.54002269455368   13.30306802620705    2.94294371483302
C         8.63280206761764   11.18328117087014    2.95487340804873
C         9.67373845001780   10.83074458684324    2.04448872397279
C        10.16196927993546   11.54754138354746    0.95358513666056
H         9.75166811421878   12.51551044560090    0.71517845058465
C        11.18589732404109   11.00265872332718    0.19277060149681
H        11.57530510303938   11.54257560662123   -0.65664155053203
C        11.72307436156477    9.77206004873381    0.54069103941363
H        12.53869732605878    9.34686561299143   -0.02152728811100
C        11.20179579633159    9.09163383049729    1.63967919944335
C        11.58660772532782    7.82554051671196    2.17398891570980
C        12.67151054810869    6.99763923873635    1.55908865645704
H        13.61648236812505    7.53678378197850    1.62841133931644
H        12.46645739725391    6.81468982066542    0.50565280623542
H        12.76958202985750    6.04887379727810    2.08063307298834
C         7.32184144087013   10.31880751844656    4.72820738630556
C         7.44624123373890   10.71200073286891    6.06673271047523
C         6.34641534645716   10.61169842648667    6.90498503607715
H         6.43543470109426   10.91054982071893    7.93822614995748
C         5.13657829503574   10.14007808354872    6.43481494843642
H         4.28877491971022   10.05774873965322    7.09923239932429
C         5.01003212846947    9.79477227897326    5.10346813324072
H         4.05308393048215    9.45522397200963    4.73656894715873
C         6.08208959617309    9.88322464228507    4.22673023373344
C         8.74273624466938   11.28607464918886    6.58101042665873
H         9.48199761637614   11.22381229590079    5.77829874787215
C         9.26502457926836   10.47552688560016    7.76675536296024
H         9.32929777108632    9.42847062829559    7.48444320468280
H         8.60868469711584   10.56771404003138    8.62901723185779
H        10.25480765174830   10.82589011911163    8.05127963881690
C         8.56253519388167   12.75938426328087    6.95688865055749
H         7.84325705028622   12.87084122603597    7.76523027396344
H         9.51205298648646   13.17880238564185    7.28173474821022
H         8.20783455141020   13.33232982858974    6.10241701646447
C         5.87018572708143    9.54065054933206    2.76902398710563
H         6.82756467883973    9.61529358015157    2.24588820004383
C         5.36757402519764    8.10732211945522    2.59202926391784
H         4.41633972533403    7.95336877606413    3.09583221684421
H         5.23381680133179    7.89075610659437    1.53418221551919
H         6.10177625965454    7.41875666017283    2.99621208008894
C         4.87957281201395   10.52281766233680    2.13348729980810
H         4.81382620378865   10.34513868058940    1.06206595567458
H         3.88764271752253   10.39534057998310    2.56072606201809
H         5.18600345433864   11.55304144269882    2.29491514589542
C        10.97107930009068    6.19606888954127    3.77750426876820
C        11.71459292639457    5.94819226934224    4.93824708054224
C        11.67870498639788    4.68364189357462    5.50598263276161
H        12.24743721696205    4.48582567847290    6.40162516157561
C        10.93093127517092    3.67132300763748    4.93757258622645
H        10.90721700890299    2.69116780461201    5.39125782465207
C        10.22675230731041    3.91416657328026    3.77428955353023
H         9.66478667490408    3.11087448543682    3.32211901620591
C        10.23349083459278    5.16394685905590    3.17079772085609
C         9.47886522155883    5.36159531070939    1.87518710421433
H         9.51324445084549    6.42147900932820    1.60760890055667
C        10.12678934251544    4.54033527701567    0.75499486465028
H        10.02868298965543    3.47613806944086    0.95792497186748
H         9.63841403369809    4.75320313597473   -0.19365868125570
H        11.18461255890296    4.76878613009906    0.65772090592543
C         8.00567430905595    4.97407441646781    2.01175534561888
H         7.88986848778064    3.92039006877531    2.25371688352143
H         7.54576688365821    5.57096718670461    2.79183373510731
H         7.48624477370228    5.16845530703307    1.07580544857295
C        12.57461595060177    7.02730480360147    5.54702931236915
H        12.42759327033500    7.94384662420322    4.96988737816735
C        14.05502473981340    6.64438389160920    5.47415079772051
H        14.66691914633106    7.45145772079983    5.87080202990505
H        14.25567212954827    5.74560254208020    6.05298168749990
H        14.35331299753407    6.46101582614168    4.44379446519975
C        12.14724092133389    7.30442580370730    6.98832768875220
H        11.08186652050060    7.51627011630631    7.01180540372660
H        12.34963909427364    6.45091775324313    7.63129481449180
H        12.68719626441393    8.16388019285399    7.37965203838236
C        11.06103889027482    9.84719422191944    4.69595968466761
H        11.04823885185703    9.58382056681382    5.74669325912948
C        11.95615182588916   10.73604790119010    4.31041362791922
H        12.65380475853202   11.18927305760075    5.00635855371234
H        12.06508739000684   11.07728554139680    3.29223640979761
C         8.26805110122879    7.29274468012583    5.06551729527576
C         7.38527806213301    6.31090189895196    5.80201902487176
H         7.47119577428265    6.47216676752390    6.87205793677602
H         6.35331537545189    6.43142084200176    5.48284641398921
H         7.71144252414329    5.30044096191131    5.56113280577983

