108
CSD_code = DONBEO | q = 0 | S = 0 | Stoichiometry = C47H57NO2Ti | MND = 5
Ti        9.12594614357250    3.70894598384652    0.40357709337881
O         9.79539515965965    3.34102785021435    1.97730017403541
O         8.49330197089484    3.80087119889215   -1.22590212600117
N         9.55004455505434    1.69525637458294   -0.07395437469611
C         9.51604610033984    2.38106132591328    2.81424618504294
C         9.54539350577713    2.57289363895929    4.22702397751359
C         9.11501862383739    1.53156242317876    5.02321828861685
H         9.11084032397661    1.62951213165623    6.09553819753186
C         8.66284045540497    0.31579036264105    4.50718182309682
C         8.76045443986500    0.09666138129159    3.15320499201149
H         8.43905455086836   -0.85087134756000    2.74685787192176
C         9.22978824989588    1.09403861814119    2.29290781818645
C         9.54815876048887    0.76230270096069    0.90081323134655
C         9.93812008454739   -0.55608143938492    0.63048653096529
H        10.01584409175276   -1.26952734532731    1.43332184494545
C        10.23485165520603   -0.93071796962352   -0.66288427096136
H        10.50356863678453   -1.95149498878222   -0.89253500210293
C        10.18034318963472    0.02134107087680   -1.65853580920060
H        10.35845899322551   -0.26049420148484   -2.68210451947788
C         9.87977187350106    1.35249633605119   -1.33842429487211
C         9.84002303501314    2.31880960436479   -2.43935241717816
C        10.56388443167750    2.07671291331569   -3.61170765108134
H        11.29955337607193    1.28711650660905   -3.63417758138836
C        10.39821613924092    2.86503171930709   -4.72671870089411
C         9.41402438841781    3.85491322938411   -4.70703448360553
H         9.25250048215188    4.39786038530680   -5.62396311257370
C         8.67782185773866    4.15726514429580   -3.57993133340409
C         8.98908843532357    3.45269488478836   -2.37912138938157
C        10.12822834956308    3.86340677220206    4.80936464595089
C         9.31896941850998    5.07474346891986    4.29114384486306
H         9.30191680390563    5.03693432003320    3.19879859489850
H         8.29133161152656    4.97338844299467    4.64379566298800
C         9.84484370555261    6.44807552053392    4.70122640032618
H         9.89707941317935    6.56067934024592    5.78093584577517
H         9.17482904813184    7.21500579886115    4.31628276074082
H        10.83226168302457    6.63257438671573    4.28663342134263
C        11.58969920434654    3.97253690481085    4.30783912037744
H        11.56875317893508    4.17796586310070    3.23571805981414
H        12.07107023110197    4.81925242182604    4.80020670908110
C        12.43826399383496    2.72776033752452    4.54980447206964
H        12.53573966066465    2.51565114180886    5.61171276314513
H        13.43674011716536    2.88054396440311    4.14404633210533
H        12.00107725150363    1.85745745453953    4.06452879098773
C        10.14545389687660    3.86820939635515    6.35253756991095
H        10.59131815956887    2.93728035362298    6.70390454923235
H        10.81054524803568    4.67036814920285    6.67873497412620
C         8.78953924495958    4.06892732584130    7.02999956164983
H         8.46432235594177    5.10341529775273    6.95917459030944
H         8.86677536927787    3.81881758585141    8.08700074622544
H         8.02087448725133    3.44293707267749    6.58508109142736
C         8.12805110643521   -0.73289346807470    5.43652777267608
H         7.26139950831370   -0.35540244534363    5.97814778577587
H         8.88178762955026   -1.01457700476092    6.17161645248168
H         7.83003844413695   -1.62214721925823    4.88684167562749
C        11.21018951266365    2.64586236449566   -5.96879852983950
H        11.62862218393064    3.58649728492070   -6.32323625529882
H        10.58717421287350    2.23888297128001   -6.76564718950461
H        12.02474882801902    1.95121738035543   -5.78036794872527
C         7.54350740637728    5.18544718684864   -3.59406268337103
C         6.28078881454534    4.52112046649841   -2.99726489802634
H         6.48861029783416    4.26838202885246   -1.95705626956364
H         5.46626293125286    5.24672370969729   -2.99218851373824
C         5.82906307692189    3.25867990244375   -3.72437338474391
H         5.48522753848479    3.47889265937601   -4.73212800629783
H         5.00544449779400    2.79681843226816   -3.18266924933399
H         6.64375734447817    2.53934533797813   -3.78789796179669
C         7.24777338074213    5.66726881752566   -5.02984670447447
H         8.13150690209065    6.17016098844351   -5.42247628990175
H         7.05612266491699    4.79634414082498   -5.65863570530343
C         6.06758565251001    6.62576808298641   -5.17123103824595
H         5.12517241183990    6.14254580077680   -4.92914283756243
H         6.00758421318716    6.96876803429221   -6.20284404835593
H         6.18334758318528    7.49877554420979   -4.53498289730087
C         7.92058515500999    6.37989018818695   -2.68704752350769
H         7.02997261343216    6.98703848525254   -2.51027454895023
H         8.23738081824068    5.98013287794522   -1.71853405581034
C         9.02770318182778    7.26840092690086   -3.24619445243254
H         9.85042564465589    6.66387770227875   -3.62198808898849
H         9.40882594579053    7.92349879617843   -2.46476870981594
H         8.66560804144158    7.89610102186558   -4.05706900957106
C         7.30769383035317    4.48894693418523    1.14759653765651
H         7.34027074296535    5.21065712978253    1.97148558939905
H         6.75824503332201    4.92227302321109    0.30286914253747
C         6.73563018804710    3.20464886579630    1.56615429416290
C         6.43649486041496    2.20517212222322    0.62158961674565
H         6.57365560353143    2.41109208304605   -0.43732959190009
C         5.93397182643233    0.97886073555884    1.01214354626840
H         5.71104647371978    0.22924183154711    0.26423701639952
C         5.69950626488184    0.70694035614485    2.35142032924836
H         5.29879091076468   -0.24936312851316    2.65294667752573
C         5.97605764793118    1.68041545911867    3.29685545130383
H         5.78139929218807    1.48632011837655    4.34190608715561
C         6.48779539715632    2.90420379825065    2.91295262198864
H         6.68079990737228    3.65821223338001    3.66406086102109
C        10.50989907495345    5.28472631757751    0.17317649224916
H        10.18676291148545    6.18021209159435   -0.37034052626646
H        10.87468273128715    5.56611298919842    1.16917964245973
C        11.51197117170792    4.52113362237462   -0.57978960310531
C        12.20969168179888    3.45273803213044    0.01389166486797
H        12.05261079491938    3.22964314127591    1.06548964622906
C        13.11549224463089    2.70043714513103   -0.70806960936863
H        13.63472243697541    1.88192520399876   -0.22708748972912
C        13.37636315508377    2.99549481036273   -2.03791218976438
H        14.09179553964999    2.40993971918143   -2.59633524554526
C        12.71992743901290    4.05846934654428   -2.63536494824082
H        12.93016968324789    4.31201225769009   -3.66446518223873
C        11.80232216204503    4.80414864376083   -1.92115082485427
H        11.30887750876335    5.63905430947002   -2.39831836160413

