98
CSD_code = DONDIU | q = 0 | S = 0 | Stoichiometry = C46H43ClN6PRh | MND = 6
Rh        9.57048150797642   10.32388813417094    0.61466945248953
Cl       10.72922747586189    8.36281011396814    0.16379353220305
P        11.49007189782526   11.61834952863640    0.53689193646633
N         9.67248424225490   10.57319371159249    2.60871124385876
N         8.91493038075135   11.63093163118996    2.65353969237438
N         8.54835916442520   11.85527670971390    1.42066973296319
N         8.83723242044567   10.13155898594216   -1.24271914115317
N         7.85094605598133    9.34791823789875   -0.91376635670773
N         7.89307020002269    9.24332179930374    0.38037625733835
C        10.29158186043723   10.10731749562007    3.74927913584571
C        10.76556470823958    8.79486032756659    3.77482488212669
H        10.61196149309794    8.16310760648146    2.91184445624980
C        11.42651435158232    8.32342467365697    4.88926460943602
H        11.78811120855312    7.30534051315990    4.89955392989612
C        11.64199488387827    9.13895453599483    5.99419192582395
C        11.15480006312304   10.44206297451924    5.96425806756137
H        11.31250357486704   11.08705536914826    6.81731443864198
C        10.48395423647921   10.92810412168353    4.86342023764164
H        10.11214786361203   11.94138865226006    4.84207113605758
C        12.36921064785398    8.62983791839920    7.20086484047794
H        12.96614312597326    7.75524693472037    6.95437528286898
H        11.65757910529379    8.34744210886559    7.97769826021061
H        13.02098584028969    9.39919984487495    7.61023240273120
C         7.80933892979353   12.96778909641453    1.09923715696095
C         7.27646294639015   13.80852214301433    2.08006433673988
H         7.41176609065512   13.55113300587262    3.11909994971461
C         6.59640688232940   14.94940217474638    1.71059129922524
H         6.19091811375184   15.59506161618410    2.47699543522046
C         6.42766529724950   15.28757142128622    0.37270334044316
C         6.94535484230207   14.43465784812445   -0.59744204948040
H         6.81709978118257   14.67825908410992   -1.64242142996786
C         7.62222194421739   13.28748753301070   -0.24687525224630
H         8.02654683768200   12.63144944478563   -1.00499117796753
C         5.69131411394710   16.52970609476181   -0.02631062030287
H         5.56548110659922   17.19815389967207    0.82201717709429
H         4.70283088586585   16.27413733625652   -0.40959361124494
H         6.22681678715748   17.05628737338143   -0.81456034549147
C         9.08632888892329   10.39935005594570   -2.57030702202214
C         8.56756376427580    9.60421456335859   -3.59502248721973
H         7.95132670528350    8.75680051008773   -3.33844103564828
C         8.86193696333177    9.90209736892041   -4.90939636948219
H         8.46177819622518    9.27626373977871   -5.69451962695528
C         9.67034002386551   10.98316290895418   -5.24265518908225
C        10.17289882098333   11.77753348071344   -4.21598976387499
H        10.79763900394224   12.62608871195786   -4.45748819267937
C         9.88575997190802   11.49573542124055   -2.89889339861783
H        10.26696603910520   12.11583208585263   -2.09864367563327
C         9.99076805416348   11.30324992202868   -6.67089764285353
H         9.68541673084021   10.49421639337921   -7.32969771221844
H        11.05923378391840   11.47304000908797   -6.79469419648600
H         9.47202564902262   12.21146219196295   -6.97948437044618
C         7.00036260324266    8.43601124098692    1.04628621108071
C         5.96107652142945    7.78577979659819    0.37110436922179
H         5.86207892722972    7.92585536065513   -0.69401070625422
C         5.08791839055910    6.98155548847727    1.06846735809654
H         4.28829612248628    6.48197366317706    0.53973661127423
C         5.21562618703666    6.79522831438141    2.44311070473009
C         6.24960264814630    7.44465990342816    3.10535108859675
H         6.36931117596368    7.31171004244048    4.17125220409247
C         7.13214672873550    8.25726556851844    2.42345075678029
H         7.93806720436770    8.74928408293848    2.94915392293799
C         4.25258463277809    5.91236090008272    3.17631130492466
H         4.51533640500260    5.83878239734213    4.22857157154631
H         4.25155723018463    4.91141777254591    2.74625769824382
H         3.23995384757844    6.30774486394517    3.09795466480436
C        12.72412977089381   11.41083638788704   -0.79272006599896
C        13.84593956118265   12.23751701599362   -0.79077955785382
H        13.95879373021749   12.98707785180359   -0.01865954649964
C        14.80758351124520   12.09997419151102   -1.77232171222220
H        15.67497834610759   12.74424862433134   -1.76881959675969
C        14.66138067029678   11.13453768832256   -2.75742397370070
H        15.41490424811109   11.03015994450481   -3.52437766801096
C        13.55683792130698   10.30093687167916   -2.75075600690481
H        13.44478088362756    9.54147471825190   -3.51005304514315
C        12.58948542121218   10.43379654152498   -1.76902586495058
H        11.73980210901565    9.76882039569158   -1.75231838111197
C        12.62994337431351   11.40730354022473    1.95049205368204
C        13.05160250849565   10.09982296278613    2.18367670611033
H        12.68580948507726    9.30617925018739    1.54596752358748
C        13.92104816772170    9.82293818700809    3.22034418179872
H        14.24008413626017    8.80674558404779    3.39617893233694
C        14.37526551976200   10.84613477189002    4.03595309579355
H        15.04555751313146   10.63009498756715    4.85471933686918
C        13.97614713878734   12.14881177375510    3.79367516938543
H        14.34028384314920   12.95229148345086    4.41778645633654
C        13.11199640016174   12.43528942410239    2.75081828604241
H        12.82294866974655   13.46011816208916    2.56682365239085
C        11.15211799000919   13.41325566192055    0.49783341132903
C        10.61413791699544   14.03088852138085    1.62606315480021
H        10.48527006602224   13.46602894419431    2.53949198634155
C        10.23087218792597   15.35803540981219    1.58565993366707
H         9.81499532350662   15.82250252144432    2.46732026505589
C        10.36486577025126   16.08476734256989    0.41475085630083
H        10.05197403909694   17.11750590403903    0.38003350257584
C        10.90110548357083   15.48167893234399   -0.70982064450408
H        11.01239418745544   16.04432863850304   -1.62520512424181
C        11.29304917651631   14.15575690162593   -0.67075498722619
H        11.72133284041516   13.70005410383713   -1.55259357024624

