111
CSD_code = DONDOA | q = 0 | S = 0 | Stoichiometry = C53H50N6PRh | MND = 6
Rh        7.30900265543898    8.98875696100985    2.31791022988584
P         5.89451850855641   10.79188203184994    2.12834445076698
N         6.18131358621397    7.31986617149581    2.42765372055957
N         7.17720597086096    6.54661304118620    2.78362303387501
N         8.24630254108334    7.28827317180715    2.72211244920130
N         7.68456645411811    9.61355857544788    4.37700618394394
N         8.65503615329433   10.40085204540600    4.01346651700144
N         8.79650965217543   10.32801470631742    2.72526558227004
C         7.46405177690442    8.66847367450979    0.30316825109529
C         4.92593655960386    6.75883471972071    2.33426068985212
C         3.82405608579822    7.55375108041540    2.01646350510908
H         3.96289516580711    8.61319794780639    1.85968170342616
C         2.56624940766736    6.99784036766302    1.91163628559030
H         1.72756025616243    7.63448445503260    1.66703294438263
C         2.36215712206650    5.63891854210855    2.11673679201202
C         3.46339390382741    4.84792106529091    2.43228491252511
H         3.32442437096901    3.78785712024769    2.59279846394108
C         4.72549884095859    5.38811502455304    2.54158661176332
H         5.57403848858659    4.76708232762427    2.78330696688135
C         1.00026101342599    5.02967440543962    1.97869508996098
H         0.84039722362336    4.26327924037726    2.73462045753199
H         0.89801089817824    4.55917415933558    0.99982147784273
H         0.22505824656152    5.78634276070409    2.07328658088761
C         9.46047246170250    6.76570565350671    3.10593724552227
C         9.55349402378312    5.51752838750490    3.73291788817301
H         8.65013692505807    4.95670494277967    3.91739931851428
C        10.78357659361261    5.02581956825478    4.10821863049869
H        10.84615928611445    4.06199116634958    4.59399265298340
C        11.95135496693142    5.74968458107856    3.87970072423050
C        11.85122387750549    6.98629353001416    3.25440350566161
H        12.74502420594584    7.56384594191438    3.06533086681916
C        10.62730235592175    7.49321226939597    2.86883601391469
H        10.56283821751817    8.45260739986697    2.37718351629651
C        13.27783984117017    5.19365107855350    4.29960608767997
H        14.07416156530435    5.91191773374245    4.12165944611687
H        13.50104023209793    4.28394044395860    3.74217232803092
H        13.26721401451718    4.93912553353899    5.35874904842032
C         7.36669016130474    9.55264647385064    5.71768247737640
C         6.69128419284406    8.43054588331729    6.20120300180952
H         6.48040768712473    7.60762669204711    5.53119077405963
C         6.31777641776956    8.36075872996339    7.52713882594817
H         5.79678326567527    7.48424821164660    7.88667518494703
C         6.60336700211548    9.39742825774711    8.40704671795570
C         7.29166921251331   10.50636717257965    7.92365484909276
H         7.52703783766403   11.31768025676719    8.59883956100644
C         7.67227649510804   10.59090534234129    6.60223325898032
H         8.20188138793090   11.45428767880484    6.22808588356269
C         6.20446040251298    9.32158564916149    9.84984098837141
H         5.80025468317809   10.27379644794438   10.18910428369130
H         7.07273073639247    9.08931483786564   10.46774521975198
H         5.45815423280038    8.54654485380205   10.00730657400176
C         9.80242852370413   11.08778995457090    2.15616170420990
C        10.30104537465426   10.76603463152900    0.89234127703240
H         9.91426537170756    9.90220620116641    0.37214860982229
C        11.28919181728759   11.53928743726278    0.31975677793861
H        11.66265485799289   11.27911068977330   -0.66066635590697
C        11.81867106093467   12.64157169636797    0.98248853407322
C        11.33729773152753   12.94028358952589    2.25174372636378
H        11.74258247783146   13.78562020146552    2.79030554848631
C        10.34699794859961   12.18051621263307    2.83666033074635
H         9.97482189032755   12.41921737667036    3.82078243291730
C        12.87271202933413   13.48620820621142    0.33302070044478
H        13.63143326492944   12.86226137321970   -0.13572524291039
H        13.35274739792403   14.13692121032792    1.05992836215942
H        12.42955221690926   14.10989532650957   -0.44422638556484
C         7.45991747053124    7.42039670392567   -0.31661770753750
H         7.35145484478253    6.50768324011395    0.25463021728800
C         7.58799872856466    7.29620219465582   -1.69100656697352
H         7.57538781499982    6.30924893342503   -2.13374536425888
C         7.72807202190351    8.40882221214058   -2.50612854876863
C         7.74593377952452    9.65658900043936   -1.89976750329270
H         7.85619591876839   10.54662624539151   -2.50497657359221
C         7.61689370800709    9.77790306207887   -0.52849334313903
H         7.63423846586369   10.77422170434907   -0.10000069827648
C         7.87800102133708    8.26583706893777   -3.99141123338479
H         7.53844875897811    9.16386214450447   -4.50303891736903
H         7.30890613078105    7.41384839090936   -4.35755431218145
H         8.92576396278335    8.10511915841399   -4.24905985305380
C         6.65662140159148   12.38603232687659    2.60067459759102
C         6.60171319429721   12.81731291139070    3.92278919904920
H         6.04945103169304   12.24284426038061    4.65428718008764
C         7.25307970824394   13.97554709676980    4.30645858739248
H         7.20139690825327   14.30151905440856    5.33536923094614
C         7.97006530139961   14.71265692559915    3.37897928741781
H         8.47643682623134   15.61777330947237    3.68002042738694
C         8.04685151270906   14.27856894882932    2.06591526821318
H         8.61837328681645   14.83961799065325    1.34137135952701
C         7.40365481274071   13.11755481752408    1.68076734966504
H         7.47860872004914   12.78051611353042    0.65588628748603
C         5.02139270249109   11.22123838926679    0.57392477091576
C         4.68895926590826   12.52840612613455    0.23147037183236
H         4.98794855635705   13.35340300538408    0.86312599262409
C         3.98934789176286   12.78780050935196   -0.93378228026933
H         3.73946443146514   13.80739283203211   -1.19021343909857
C         3.61328884546526   11.75007798871072   -1.76958935559440
H         3.07017835717893   11.95830169104002   -2.67963089041250
C         3.94306938949073   10.44712442354024   -1.43662854698473
H         3.66089592288555    9.63204553554766   -2.08627373539739
C         4.64315448420844   10.18434079500154   -0.27399567112659
H         4.91723604001141    9.16775742856808   -0.03285469058204
C         4.47363773782884   10.79224096998827    3.29115961792182
C         3.52637057463776   11.81149413942593    3.27650318073564
H         3.59840141172902   12.60910023172746    2.55191037955744
C         2.48887336649680   11.80619494781873    4.19003429000810
H         1.75640428287165   12.60029291214643    4.17222534462297
C         2.38742234614750   10.79102039151697    5.12832557909346
H         1.57741009041156   10.79541598076330    5.84274946333775
C         3.32453159568721    9.77274703260735    5.14516732797561
H         3.25431123152485    8.97805228355580    5.87280196604291
C         4.35850445952978    9.77232409093986    4.22706773258742
H         5.08557255740873    8.97397205929356    4.23231642843114

