89
CSD_code = DONDOZ | q = 0 | S = 0 | Stoichiometry = C33H51O4Ta | MND = 5
Ta        4.52278604243045    6.33581689434032    8.82361240091170
C         4.56332940666452    6.33542741388959    6.51952952053799
C         2.70135791725893    6.33584669858387   10.27080211698597
C         6.78573971668878    6.33536565082143    9.26882925441694
O         4.38430891323902    8.16386910348103    8.94814379992621
C         3.86777417499960    9.30303506228677    9.37685326137867
C         2.78118547479629    9.99814913413339    8.74789306136185
C         2.39352298997339   11.03396224277988    9.54490591651243
C         2.36148761269273   11.87397184286827   10.60363233040212
C         3.39586784610330   11.01664407100153   10.81552581947408
C         4.24079002781737    9.96770707750360   10.59329211033498
C         2.15852684244881    9.73319014140398    7.39535565714123
C         1.13701920617445   10.83176980374708    7.08526318914603
C         1.44058239074636    8.38052787521026    7.38698911272978
C         3.26114330650859    9.76046831781480    6.33201164315637
O         1.68735672673387   12.87906201747262   11.13831522279543
C         2.11895058729795   13.24263478482971   12.43580421089438
C         5.42024815831174    9.67283751046001   11.49482898154882
C         5.25879767569044    8.31233761015811   12.17941442314429
C         5.51725635103431   10.75354930982410   12.57713439252895
C         6.69895931621152    9.69963995496144   10.65140981573487
H         5.11770356194728    7.21090620802167    6.18283771817046
H         3.60023087900038    6.33566545709311    6.01517442966294
H         1.76276806996186    6.33584744394971    9.71647861983699
H         2.69402650809591    7.21831392360658   10.91127247879445
H         7.07761388971177    6.33563868780938   10.31606623184044
H         7.23232263064718    5.46083340695599    8.79651153418793
H         0.33907003337501   10.82894770106938    7.82334270675650
H         1.61063096098518   11.81020291983378    7.10068512776104
H         0.70278691939051   10.67029922659445    6.10080619566082
H         0.66671265068278    8.36494926667845    8.15156053360891
H         2.14271584864063    7.57508073306073    7.58584086320372
H         0.97377639569752    8.20813298240913    6.41880561491556
H         4.04877078648114    9.05943221513382    6.59145954677310
H         2.85994942340723    9.49536274805528    5.35591835308871
H         3.69543080902511   10.75653270769366    6.27031644508731
H         1.99311876140970   12.40990385586626   13.13410564706376
H         3.17053694334782   13.54284750040127   12.42822705001791
H         1.49484892864051   14.07959015068805   12.74152450823344
H         4.35834913759436    8.30440671483000   12.79031559761054
H         6.11331992120835    8.11137051691342   12.82316773760259
H         5.18256335324281    7.51909633608664   11.44052681823094
H         5.62055869608594   11.73745059976449   12.12592145596310
H         4.62556672625176   10.75178607487899   13.19925587872895
H         6.38274205903603   10.56975150683705   13.21017598918322
H         6.60728391782898    9.01610025255170    9.81322290416015
H         6.86645546278014   10.70112168400114   10.25942879363216
H         7.56113591778703    9.41186659661258   11.24965463004830
H         5.11780067309468    5.46036863991469    6.18180738550099
H         2.69421044277839    5.45315667375832   10.91095345975482
H         7.23106395001208    7.21044209609889    8.79642007725582
O         4.38427630970229    4.50782299432151    8.94818700199392
C         3.86775711476563    3.36863466843833    9.37687652674113
C         2.78120983869111    2.67343781812497    8.74789836034211
C         2.39355849125338    1.63761504525427    9.54490224268380
C         2.36152045964759    0.79759829601960   10.60363420113058
C         3.39590606760392    1.65493366864813   10.81551202432191
C         4.24081951737447    2.70387367463582   10.59326877547321
C         5.42028959452379    2.99869183699299   11.49480316351642
C         5.25881647501075    4.35917320723203   12.17941668508817
H         4.35836389010262    4.36708172653024   12.79031513701585
H         6.11333411179739    4.56013237337659   12.82317276616799
H         5.18257122572318    5.15243079232406   11.44055090463479
C         5.51729884603410    1.91796312587539   12.57709785781028
H         5.62059615234850    0.93406237772028   12.12588390830807
H         4.62561753765461    1.91972190503537   13.19923063274721
H         6.38278856859840    2.10175179233720   13.21013863360871
C         6.69900263451782    2.97189318394341   10.65138302727907
H         6.60733810664995    3.65542919681094    9.81319759693281
H         6.86650641520010    1.97041240896156   10.25940139232832
H         7.56117249571087    3.25966631159512   11.24963775561027
O         1.68739178438350   -0.20750240412252   11.13831151065047
C         2.11897372013447   -0.57111075884737   12.43579778526587
H         1.99308767448549    0.26158601798746   13.13412848454098
H         3.17057233296456   -0.87127746560221   12.42823273829575
H         1.49490925814212   -1.40810823401556   12.74148733584934
C         2.15853281025267    2.93833733996710    7.39535737853974
C         1.13700865915107    1.83976048820792    7.08528576316606
H         0.33906571839485    1.84259369618522    7.82337033844592
H         1.61059938284645    0.86131812743342    7.10070046715337
H         0.70275777684565    2.00123034116291    6.10083411588868
C         1.44057885908349    4.29099234469236    7.38699648386172
H         0.66671758911303    4.30657219721808    8.15157869896902
H         2.14270380331967    5.09644704186924    7.58583509009000
H         0.97376395256327    4.46337331798581    6.41881883250752
C         3.26113389840271    2.91102427368062    6.33199660922038
H         4.04877466723970    3.61205011343708    6.59141325912906
H         2.85992133801007    3.17611722625728    5.35590788192732
H         3.69540797978425    1.91495258758849    6.27030805937243

