46
CSD_code = DONFOC | q = 0 | S = 0 | Stoichiometry = C21H17Cl2FeN3O2 | MND = 6
Fe       -2.53622243273212    6.82695225419874    3.08661467532046
Cl       -2.32704223070965    4.69763960024844    2.90829010284265
Cl       -0.51669800530534    7.25705996465350    2.51415825364231
O        -1.85590856976215    8.52139580714472    6.69254894184344
O        -4.64287721870794    6.19723333662109    3.58211385966705
N        -2.93128713140307    8.54742705701445    3.30455537406389
N        -3.12138552084736    7.13975511488981    1.22612787628057
N        -2.04895334411442    7.04747537646235    5.01044776362071
C        -2.75938170043262    9.21233616978374    4.47217897789420
C        -3.10120573835024   10.56903222878560    4.59011204040495
H        -2.94866660751744   11.06227669876318    5.53732404382092
C        -3.60710268127695   11.24737601541051    3.50592912502537
H        -3.86261693634698   12.29274541462938    3.58258620278192
C        -3.77813941938795   10.57139222440727    2.27332275615018
C        -4.26023116213157   11.12329725926952    1.05646887485691
H        -4.55062688242503   12.16375198327842    1.04466845998978
C        -4.35277933191121   10.37459295586512   -0.08083357858558
H        -4.71552344635008   10.82229931365299   -0.99460410238988
C        -3.97745934349817    9.00179140778758   -0.11495520349835
C        -4.01658299750886    8.15601366927650   -1.23593344772288
H        -4.35638476053609    8.53192638449577   -2.18949747231370
C        -3.60303898500386    6.84935599417771   -1.09017783184355
H        -3.60965057931444    6.17402671397419   -1.93117749425690
C        -3.16150820683437    6.37761699821686    0.14957760645909
H        -2.83092152629458    5.35646665455351    0.27451658582585
C        -3.51249521979304    8.42958248777815    1.08420847412455
C        -3.41703125212962    9.21693684985836    2.24824793454476
C        -2.21664183510989    8.30151152731775    5.41652233543151
C        -1.51490500841564    6.38261460665485    6.08331193828225
C        -1.12910069136489    5.05965065457515    6.24694197065278
H        -1.22176695766314    4.36797068880951    5.42514148918389
C        -0.62268123546092    4.68697436252337    7.47986138136628
C        -0.51559676580113    5.62673524691729    8.51480362915102
H        -0.11477766776470    5.30279263830813    9.46387243281276
C        -0.89710362086869    6.94794089234546    8.36909026183061
H        -0.80606931733361    7.66086619788421    9.17212691877064
C        -1.39870095690407    7.31166484674642    7.13472592925364
C        -0.17789064370326    3.27713107595760    7.72319415673498
H        -0.37438157688904    2.65698745923235    6.85370207851881
H        -0.69711824746294    2.85551818561601    8.58258807078816
H         0.89022606172251    3.25124643567709    7.93424309239946
C        -5.15838518338207    6.22227314033963    4.90031656876666
H        -6.12900528742947    5.71945991073471    4.93170732340028
H        -5.28763306594598    7.26668967868603    5.18065639741441
H        -4.47677399689275    5.74048269248943    5.60562469767465
H        -4.44157277271691    5.26803382383343    3.35125052905473

