74
CSD_code = DONHOE | q = 1 | S = 0 | Stoichiometry = C30H38N2O2PPd(1+) | MND = 4
Pd        6.45750122897299    4.34483485558614    4.17856485874698
P         4.53854558173918    3.99413255305836    5.28101707785013
N         8.16840841812366    4.43363190807325    2.95918204929092
N         7.54598749349077    4.21130071239379    6.20838705975165
H         7.53150109001649    5.19831694375536    6.48858592037487
H         8.51540998004126    3.97833466598897    5.98678761463501
O         2.52425053654074    5.06247636440994    0.38565078137737
O         4.19512791603223    4.71276682667826   -1.53815069166905
C         5.56480139759608    4.56821055412968    2.39155216368200
C         4.23481702440435    4.80095184812521    2.08657212563172
H         3.51342469857488    4.95305205555380    2.87886382346608
C         3.79776718944379    4.85201821272940    0.76598129584671
C         4.72599642250637    4.66809755771118   -0.29511506880756
C         6.05801957145191    4.47976644587021    0.00511076695204
H         6.79128354832323    4.36896636389422   -0.77767722732086
C         6.48615774810437    4.43721939123880    1.34144004254186
C         7.86962259689541    4.37296046486548    1.71250028331380
H         8.62901881919233    4.33143872441621    0.93495071454532
C         9.52448042167633    4.56177262163462    3.44279423157767
H         9.65242728738834    3.81411416198850    4.24321102671920
C        10.65273171059100    4.34109151096471    2.43380640247113
H        10.60851475394937    5.09783263663968    1.64797753671847
H        10.56241463123945    3.35351967555989    1.97564698955264
C        11.99427033638744    4.45695445825085    3.15724320808934
H        12.06722182470473    3.67787567056230    3.92007901770855
H        12.80417171151770    4.29747899095466    2.44476913299426
C        12.14510520874670    5.82944127982899    3.80865352519211
H        12.15795771865567    6.59824723750553    3.03363984323961
H        13.09409188141679    5.88003160756384    4.34323854111431
C        10.99412364191246    6.10626416636881    4.77328355318576
H        11.08922729875272    7.11176645693770    5.18573792824996
H        11.03913863519229    5.39797434482115    5.60525364950674
C         9.66163512123301    5.97086293405317    4.04485937661998
H         8.81473190752478    6.17888900025174    4.71442253510962
H         9.61538055075753    6.69764892443682    3.23012980553853
C         1.53062830528301    5.24107435998088    1.36700693638410
H         0.60353176457636    5.39080420405763    0.81681381557722
H         1.72989294348199    6.12139911531380    1.98645668322625
H         1.43697743977556    4.35696886317003    2.00631099731612
C         5.05397038923583    4.55473040185581   -2.64384464680859
H         4.41367455871787    4.61567788693363   -3.52134809762713
H         5.55423366910622    3.58151820036703   -2.62779435947274
H         5.80287762612636    5.35162945673516   -2.68711945080500
C         4.65356866145036    3.11829537593383    6.89974784538832
H         3.66893321626057    3.15911042693211    7.37433410042081
H         4.88124520085633    2.06805072873669    6.69175037089402
C         5.71323734329458    3.71767515593200    7.82104119065036
H         5.58078083012040    3.30919275046780    8.82458431991392
H         5.57851619923003    4.80256265227038    7.88339878774182
C         7.13746381441131    3.40398681612016    7.36624427199624
H         7.81963381479199    3.58342970001294    8.20930802062128
H         7.21045562832117    2.34765508377268    7.09035352487116
C         3.44492727738722    2.85585612203079    4.37940165040246
C         2.05750449645676    2.86493388482449    4.40987691675091
H         1.52697166817885    3.60769665535120    4.98756057520101
C         1.35280176040812    1.92796132018377    3.67094005420668
H         0.27336779861648    1.93592779135601    3.68737601656580
C         2.02659171561189    0.98728868502657    2.90992481202348
H         1.47028355780562    0.26382423067328    2.33446590930439
C         3.41349200533946    0.97866594426668    2.87645548248694
H         3.93513352847179    0.24922182540880    2.27611297445316
C         4.12117579748942    1.91372488827771    3.60566779541230
H         5.21468466673117    1.94302521726012    3.57361781194427
C         3.69782058526493    5.55698491721150    5.65721552837092
C         4.29439445416801    6.69921970820128    5.12217064496754
H         5.20078219643964    6.58835238548280    4.51388998431069
C         3.74410188904001    7.94596297022646    5.35447400537744
H         4.20521614509377    8.82851453783391    4.93808984203560
C         2.59692710542284    8.05937058312760    6.12521596877090
H         2.16286125737575    9.03057912995093    6.30501505337257
C         2.00986833837132    6.92934513011686    6.67215160709045
H         1.12303317770149    7.02319264373083    7.28012646338174
C         2.55819515920286    5.67890346482736    6.44591006642321
H         2.10237811132768    4.80624465927202    6.89124663295860

