78
CSD_code = DONJUN | q = 0 | S = 0 | Stoichiometry = C32H43IrP2 | MND = 5
Ir        2.36645422851745    3.49294801307932    2.82849932602293
P         4.25829590694050    4.76198084023657    2.73730181516177
P         0.24248902682408    2.80293576495235    3.24365306952471
C         3.19079370105318    1.58459562141363    2.88944456125008
C         3.50065038511117    0.83227848442311    4.01796534456883
H         3.33302342567509    1.24066548049063    5.00969924146918
C         4.02636912378265   -0.44797849452046    3.92894411047294
H         4.25826176193166   -0.99970432355074    4.83092411693623
C         4.25264713825139   -1.02165116013419    2.69011593566572
H         4.66136447182223   -2.02030128646845    2.62053086050169
C         3.94982738252538   -0.31197642054055    1.54262654162205
H         4.12200062588604   -0.76547663650808    0.57648365059981
C         3.42602728944812    0.97244217162088    1.63647801989410
C         3.06280732957940    1.81396410090540    0.49961840195543
C         3.21477722996197    1.48027544091247   -0.84296141856371
H         3.63979572389805    0.52543411114716   -1.11583127596978
C         2.82782075763446    2.36290943798113   -1.83438806264357
H         2.95293454475847    2.09466224463697   -2.87380594295838
C         2.27955895080517    3.58848144092795   -1.49739729557531
H         1.97230428479905    4.27676816877312   -2.27212606450207
C         2.12290318618840    3.93767075346687   -0.16285735610009
H         1.68645306787603    4.89491335573049    0.08696454622667
C         2.51194050758076    3.06406400747079    0.83881745837999
C         1.46838522201059    5.37994214753681    2.90031722315140
C         2.22314413908935    6.55559904309669    2.76241988139856
C         1.68148316469753    7.80514189952578    3.02185443506339
H         2.29357731322559    8.69286851872071    2.92057695702851
C         0.35824866584664    7.92159414396901    3.41026431787640
H        -0.06212465502391    8.89304212513487    3.62880546909932
C        -0.42880573502500    6.78761658582490    3.48988283216663
H        -1.47477479940552    6.87635933459145    3.75697631938581
C         0.11388997162372    5.53657160362471    3.22622398388640
C         3.63753365652416    6.43044821965268    2.25857094761075
H         4.28352117217971    7.24000194511867    2.60907977843053
H         3.62421629397934    6.45304612455254    1.16204615228523
C        -0.79317277681339    4.32959562263587    3.22262602324900
H        -1.37714612234813    4.33087332619147    2.29568423613024
H        -1.50480073205244    4.34975269306148    4.05307752337638
C         5.60998659289730    4.49812245792671    1.47642229485534
H         5.03394649911464    4.45643813439309    0.54035171486033
C         6.30665803623990    3.15221778475540    1.65175950299828
H         6.82943936359855    2.88143375440601    0.73608970063860
H         5.58027745658218    2.37340652634205    1.87388037764088
H         7.04016135591766    3.19431977266035    2.45420030857722
C         6.62764227192327    5.63118265208976    1.37973233478117
H         7.29619845794004    5.44404230036897    0.54071610173441
H         7.23659139119139    5.69203809865115    2.27958721592946
H         6.14582334939000    6.59206087534550    1.21667215906739
C         5.11164630355997    5.10770019070528    4.36155321532312
H         6.02458773414063    5.67820590152531    4.15162617517401
C         4.20644203852800    5.93378468839507    5.27301972473414
H         4.65470693551205    6.02127191968713    6.26249374210487
H         3.23269597458846    5.45846900708705    5.38455233888448
H         4.04468375886783    6.93660521100839    4.88651324573273
C         5.47350672042862    3.79332237347529    5.04694156681524
H         6.03450423552571    3.98199480494480    5.96201992906355
H         6.06801180928835    3.15362831746399    4.40101060808440
H         4.56926440818585    3.24799647829220    5.30797679807813
C        -0.79138758335333    1.55999970314796    2.32615038938593
H        -1.82645279539106    1.64335425409787    2.68516404369197
C        -0.74384771877767    1.88714327749639    0.83614581443511
H        -1.42031298547949    1.23666050228182    0.28401838694843
H         0.26573540622351    1.74196543715054    0.45929045945643
H        -1.02738209509283    2.91957787541856    0.64130845611415
C        -0.25742169980656    0.15135004342878    2.56619707221500
H        -0.75926050960591   -0.55590747324328    1.90785581797155
H        -0.41480134499043   -0.17270426533533    3.59234392227711
H         0.80991927332063    0.12033909355359    2.35246058725266
C         0.16269794400710    2.23990935398707    5.01978853984047
H         0.71674471253137    1.29303218653376    5.03767316506215
C         0.94054442181976    3.26579234113647    5.84219293839189
H         1.04661045883242    2.93924398824865    6.87678930435079
H         0.43797193973864    4.23307322876473    5.83722275050850
H         1.94229128034171    3.39849798990423    5.42216051230825
C        -1.22982339307677    2.00754750550901    5.59455146900886
H        -1.14559477819547    1.63806840773993    6.61628304759399
H        -1.78244587489831    1.27124998011195    5.01579071954223
H        -1.80773418094018    2.92921087085891    5.62468788449912

