55
CSD_code = DONJAS | q = 0 | S = 0 | Stoichiometry = C26H24As2Cl2Pd | MND = 4
Pd        3.39431439210153   -0.93475038364756   18.69010998350582
As        2.89323210749799   -0.37808003027381   16.48475212123089
As        3.82845987313286    1.31969415046446   19.07159716484008
Cl        2.69852463871453   -3.04433085041365   18.25199546593957
Cl        4.16886925897129   -1.34299075011251   20.77895038153501
C         3.84427827015162    2.23486287765271   17.29429961802854
H         3.68366709602508    3.31363119368853   17.41510842310303
H         4.84039018277658    2.08262943181962   16.85420101878282
C         2.78469610748186    1.61553528044374   16.38696285808557
H         2.90115051861606    1.95682143049888   15.35045143995425
H         1.78340379478125    1.90817884431098   16.73529239526017
C         4.64371691205525   -0.64958973071634   15.67266024595145
C         4.88961650840039   -0.34083844898107   14.33717688821984
H         4.07070414262170    0.01178180959007   13.71558416304032
C         6.15973464947583   -0.49198733770950   13.81030135174610
H         6.34642376694246   -0.25180685799110   12.77354486013571
C         7.19227075760794   -0.95320442208080   14.61232157452205
H         8.18315165007373   -1.07010481486002   14.19904929088132
C         6.95464989862275   -1.27273468551291   15.93886399187131
H         7.75758404236410   -1.64220792530469   16.55965072454640
C         5.68397895481476   -1.12306565587089   16.46971491939335
H         5.49499207135294   -1.40568213405071   17.52036021296103
C         1.71390801768629   -1.00812699273784   15.07411921203239
C         1.90292420735243   -2.31296452692319   14.62320288365087
H         2.70179609196379   -2.90713994387336   15.05922678821521
C         1.07000399267307   -2.84022565582469   13.65339061304743
H         1.21824396365406   -3.85196203898440   13.30611514538983
C         0.03968338935640   -2.07216384457717   13.13360534285346
H        -0.61180555692696   -2.48377296323853   12.37713256767924
C        -0.16376115869742   -0.78099316986991   13.59093203390351
H        -0.97415605437024   -0.18785998638881   13.19236876967341
C         0.66569612562409   -0.24967137376642   14.56465796901824
H         0.49834712862337    0.75727853164067   14.93389666074599
C         2.08075639789134    1.88531831630165   19.71936731358235
C         1.07497581966499    0.92962521887986   19.84734057170841
H         1.29128706750188   -0.13478643135129   19.64765961852320
C        -0.19366115376112    1.30538296110461   20.25775082507327
H        -0.96977917539175    0.56102870573247   20.35844202640770
C        -0.46321165248729    2.63349501558347   20.54391963314085
H        -1.45200210573516    2.92556382053288   20.86548950360177
C         0.53503049045386    3.58854010134882   20.42765942767110
H         0.32379226213992    4.62251146513564   20.65955446219703
C         1.80275649259632    3.21709828980733   20.01708831255693
H         2.59549528127785    3.95571940540643   19.93075599990762
C         5.01648689168206    2.37943583817576   20.18480194122081
C         6.06096663216954    3.13687313782484   19.66650282161579
H         6.21260040393896    3.18332018531614   18.59280244367847
C         6.90653164251631    3.82616949960632   20.51980860526551
H         7.71432815658476    4.41800774558346   20.11479927591295
C         6.72290227178603    3.75099123138383   21.89016696926592
H         7.38691944091620    4.28678441905558   22.55208240087396
C         5.69633130283529    2.98050486830830   22.41311502967309
H         5.56307542946450    2.91166927122702   23.48232447332121
C         4.84786037040176    2.29282286103121   21.56498808614569
H         4.05146800027189    1.66606505600316   21.95698317847793

