104
CSD_code = DONLUO | q = 1 | S = 0 | Stoichiometry = C54H42N5OsP2(1+) | MND = 6
Os        5.28638207447259    1.51483616350197    3.46319178760043
N         4.80884168712667    0.49792974962805    5.19941735219739
N         5.17308933996186    3.07374563107185    4.72025863694179
N         5.72296961218483    3.01515569746781    2.13338486204801
N         5.40322905111351    0.17969969742483    2.27698978440389
N         5.48536372465760   -0.59311596682848    1.46291881466654
P         2.94860814139078    1.86605268536246    3.03232886780038
P         7.57533448032897    1.36330723087465    4.18124561154018
C         5.93453357023486    2.95381936489037    0.83070557845689
H         5.85569953120050    1.98297881025587    0.36128064835351
C         6.25537420092514    4.07186513812508    0.05675460922148
H         6.40584231416458    3.95263809383005   -1.00349736181580
C         6.38365698555023    5.28834448678035    0.66721298215634
H         6.64876487451179    6.17330765223177    0.10961565106526
C         6.17226861213427    5.39280866371930    2.05896381142012
C         6.31850469746560    6.60110451800757    2.75858450248817
H         6.58534176177435    7.49358579799139    2.21608194473417
C         6.14969459090978    6.62024372226055    4.12079507194258
H         6.30395239894559    7.53866282653581    4.66709215594839
C         5.77997847109238    5.48150351681348    4.82804732003792
H         5.71258941341411    5.55100478330332    5.89868385406611
C         5.55597643029508    4.26404776276242    4.18446258167527
C         5.81503287678473    4.21509385887196    2.76847877996708
C         4.71739994488799   -0.80087811942899    5.42719804610030
H         4.95034008156284   -1.46388565604804    4.60490325729481
C         4.34327844002167   -1.33629581200850    6.66178270684433
H         4.28901174008995   -2.40639356784525    6.77836750343700
C         4.04332949183848   -0.48553346279110    7.69040057704828
H         3.73166470925724   -0.85730624774500    8.65447420238950
C         4.14291984088988    0.90756268018834    7.49149517345178
C         3.83972309197820    1.83805797334797    8.49756435308530
H         3.52968721380804    1.48153227382293    9.46662635500898
C         3.91794998048638    3.17984345159719    8.22480121825702
H         3.64764111116568    3.89857023186792    8.98352307715819
C         4.34480274782684    3.65056154152507    6.98865970148798
H         4.33756274800862    4.71273137935124    6.82635983896317
C         4.71541910239072    2.78019162679783    5.96618240278848
C         4.55664893903841    1.37041472183165    6.21370987486456
C         2.52060098003071    2.58730756368889    1.41050712024338
C         1.67906691829352    3.67600337634953    1.21803279229981
H         1.23572121273189    4.18668359181182    2.06007441634562
C         1.39087554218502    4.10475242456346   -0.06676620414662
H         0.73727732399096    4.95206794474412   -0.20953475824391
C         1.92624152853726    3.44987606220311   -1.16247939496843
H         1.69820287146061    3.79203702449413   -2.16011583982388
C         2.73915912534615    2.34286124298843   -0.97605499135028
H         3.13775147355788    1.81302933134927   -1.82780485370893
C         3.03175203682601    1.91172980714691    0.30309771114107
H         3.63962866134679    1.02928635771285    0.45535609648881
C         2.19090626535445    2.95091500936777    4.27627543442009
C         2.40878761221611    4.32670833607828    4.23050641179595
H         2.98604332906358    4.75708177609700    3.42255944654800
C         1.89734307667128    5.14201675664084    5.22277532475617
H         2.06067757841763    6.20851212450186    5.17512829312272
C         1.18351513532854    4.59249489085218    6.27588443564465
H         0.78320714510329    5.23169640235869    7.04767505270670
C         0.99302545763008    3.22222262818522    6.34329675355630
H         0.45122537262381    2.79054277786480    7.17091088318367
C         1.49977731607916    2.40137217601780    5.35282743637271
H         1.35610760440276    1.33074725949358    5.41020259658316
C         1.79670428377049    0.45249082859676    2.98011227908491
C         0.43118736207097    0.70710636188039    2.86186109237982
H         0.07455623329774    1.72789971914622    2.84490693342235
C        -0.46095570982090   -0.34271360427305    2.76737034792722
H        -1.51775675119675   -0.14207791193075    2.67832000676966
C        -0.00084936893672   -1.65129310184683    2.78081238429199
H        -0.70101829432980   -2.46874524275545    2.70428744533388
C         1.35530925533177   -1.90742407534364    2.88391412102079
H         1.71623186619150   -2.92466180667203    2.88346190869757
C         2.25372498446786   -0.85824300962254    2.98033362095034
H         3.31342188907747   -1.05544449841683    3.04586657516435
C         8.79379758288879    2.17312981608221    3.09338709931907
C         8.68615232299992    1.83162203683394    1.74563846834894
H         7.91523084209977    1.13505249316414    1.43956432018475
C         9.56780784971935    2.35160153640558    0.81877573035869
H         9.47782359048143    2.08191285273595   -0.22251093947215
C        10.57106960392675    3.21434556418345    1.23150370427079
H        11.25780519346629    3.62948945574085    0.51005023557373
C        10.70461168070305    3.52722925852479    2.57353822065610
H        11.50224575319132    4.17780713135628    2.89923872904311
C         9.82649268798151    3.00489284995764    3.50833489239024
H         9.96205155817529    3.23945403242827    4.55350750282629
C         8.42584117926924   -0.24158626607807    4.37455237407316
C         7.90265303757845   -1.42369152975870    3.86861375172795
H         6.95152295640785   -1.41857719844985    3.35841171709829
C         8.60529942013901   -2.60917988297189    4.00622009161652
H         8.19294893515475   -3.52478458481392    3.61025306444110
C         9.83324326281809   -2.61864327950490    4.64421131367271
H        10.37978819319032   -3.54285394556624    4.75146231389603
C        10.36515202358769   -1.43795370573489    5.14091407106848
H        11.32625448157248   -1.44195772827769    5.63222540375313
C         9.66918272758390   -0.25311437928939    5.00492492317802
H        10.08521082896265    0.66799094632533    5.38945511803013
C         7.75549385456869    2.05773405642431    5.85215406642527
C         7.92642907355373    3.42056760124424    6.07700704760667
H         8.05056501123798    4.09773349551464    5.24388057126192
C         7.91786364800698    3.91629604253755    7.36862296794080
H         8.06303809573748    4.97334546540033    7.53507684533474
C         7.71749363089113    3.06565806532557    8.44273654361608
H         7.70447646433017    3.45800309133809    9.44779851532170
C         7.52976357774831    1.71054031868475    8.22468429907754
H         7.36656948535577    1.04449241087505    9.05828909439777
C         7.54500468370632    1.20802721872755    6.93767482409247
H         7.39845942115629    0.14888533860619    6.76835610565228

