102
CSD_code = DONLOI | q = 0 | S = 0 | Stoichiometry = C53H36F6N5PRu | MND = 6
Ru        8.52118519153722    3.74173417102611    1.19234634190932
N         7.54333220281534    4.14156449282300   -0.53083513357472
C         6.24774491851551    4.11387643807488   -0.78743771356417
H         5.60008372150211    3.70951605554274   -0.01991336897322
C         5.69329735607935    4.58485599245379   -1.98123198926064
H         4.62639506375377    4.52229735712387   -2.12699509204402
C         6.51388767866570    5.12504926864647   -2.93241918546596
H         6.12422489079479    5.51020716028453   -3.86197389011885
C         7.89886887883243    5.22219581553751   -2.67373189435389
C         8.79186065952819    5.85388413334178   -3.55277291405713
H         8.41973645040493    6.24707234824504   -4.48551927265090
C        10.10795314536390    6.01212576880398   -3.19016923702160
H        10.78148948937176    6.54573393877735   -3.84431386435863
C        10.60039669390011    5.51683412185914   -1.98986635380706
H        11.62400284131315    5.72277760170604   -1.73327185616886
C         9.77628718004742    4.82092951320801   -1.10236350304475
C         8.38156403273162    4.70303345514467   -1.44266385752310
N        10.08633970222911    4.30521223259381    0.10630370398957
C         9.71234904390528    3.65758856877174    3.95657244755546
H         8.69331532567331    3.53962507459764    4.30898358754112
C        10.77715822229855    3.67681671341409    4.86340901664371
H        10.57151027120389    3.59252174925808    5.91926876556436
C        12.05874020912430    3.77989198224821    4.39267770883377
H        12.90670549627444    3.76449823052381    5.06044944948062
C        12.27552550121125    3.93265324377383    3.00426412838279
C        13.54965160091532    4.07793480336457    2.43409045052254
H        14.41701075357182    4.06005828857679    3.07527518501497
C        13.67498839016929    4.24216742817138    1.07547245544404
H        14.65760588825994    4.33122903013571    0.63631980003043
C        12.56723202835779    4.32250604461829    0.24100897540492
H        12.72801270889613    4.43949611661644   -0.81593871424319
C        11.27450382361041    4.21405861667143    0.75283784243122
C        11.13642773692552    3.94631343850177    2.15853446489539
N         9.88163121727886    3.75013148175313    2.64695020586701
N         6.86994205743162    3.40658598487686    2.32358501146927
C         6.38812323353645    2.25748080003759    2.77664443486945
H         6.99128482629143    1.37259349538663    2.61263782943393
C         5.16238567833478    2.14731555414357    3.44033114736691
H         4.83548916562736    1.17457811492250    3.77450523267768
C         4.39730604744247    3.26483310244116    3.64307672531819
H         3.43935109232505    3.21145503940473    4.13805199241513
C         4.88536118713758    4.51692646845964    3.20676420857414
C         4.19353366408280    5.72440915727583    3.38719792455946
H         3.22714577514529    5.70883877108779    3.86688904990373
C         4.75845425141619    6.90890363802894    2.97130580469268
H         4.22684295858571    7.83655815951675    3.12680605720857
C         6.00767035995922    6.94915092475961    2.36818013171880
H         6.44251346861832    7.89906110277444    2.09509569824682
C         6.72734353439107    5.77380292993311    2.13896973228826
C         6.14897963253128    4.53527455731719    2.55923703612356
N         7.99287667274504    5.70110159691543    1.67121071765901
C         8.58494192571259    6.71026989847836    0.97035439821757
C         9.94296449013920    6.99257830659114    1.20418553539548
H        10.44833575956993    6.49645879779611    2.01948606501954
C        10.62325423295548    7.88319904756097    0.39985872846323
C         9.99117548246183    8.54317628157495   -0.64814902005115
H        10.53372106872446    9.22593566546021   -1.28146546164254
C         8.64002540217968    8.29392967141018   -0.85632114699903
C         7.93526661316521    7.41136074280043   -0.06056063725533
H         6.89247762574160    7.21395391879851   -0.26467738892048
C        12.08647662699397    8.13284117053536    0.62354941150370
F        12.53902636884644    7.65134009701586    1.78969439639722
F        12.39573853503906    9.44122425208852    0.60951704754037
F        12.84973717836256    7.56767245007887   -0.33381433738870
C         7.93449270292353    9.00712027206296   -1.97181935338313
F         8.71954981273699    9.21407721431144   -3.03995080958691
F         7.49155687392558   10.22558929988347   -1.59702996676692
F         6.85394772454589    8.34861033939094   -2.42131114582221
P         8.96454555341486    1.56243636119969    0.54107036830296
C        10.61118947214751    1.39690123218378   -0.23195497769166
C        11.69817077329470    0.90374681417761    0.48142448533474
H        11.55870811460445    0.52574715947539    1.48477577019106
C        12.95902163038254    0.89550307036297   -0.08832029682317
H        13.79681206846922    0.50831128098217    0.47242980872214
C        13.14881728906357    1.38913047068955   -1.36725695939708
H        14.13435792157591    1.38481379186826   -1.80839101249589
C        12.07341765316052    1.90018158031966   -2.07708800765058
H        12.21833886494909    2.30007537859086   -3.07027101339296
C        10.81287921560926    1.91119483835038   -1.51239605997930
H         9.97735166848201    2.32695009233242   -2.06114635978926
C         9.02949346247351    0.12608483561766    1.68478262950914
C         9.37254482612152    0.34231126885124    3.01641608552811
H         9.55346067932806    1.35139762283007    3.35841785591222
C         9.47648140918977   -0.71864368591703    3.89754312220415
H         9.74607087818244   -0.53710962284948    4.92769489345284
C         9.23415334311834   -2.00947228468274    3.45782018537974
H         9.31100770309409   -2.83940745156822    4.14431671067928
C         8.89208791257768   -2.23247806627561    2.13422129921841
H         8.70306492530026   -3.23789262232566    1.78749001525589
C         8.79179978518239   -1.17358934372160    1.24939362749475
H         8.52554287826337   -1.35920929682155    0.21923346952774
C         7.84862291033923    0.87233232624293   -0.73799221783168
C         6.48312605149544    1.02806318591168   -0.51474451826368
H         6.15255394616211    1.52582983940391    0.38598763593860
C         5.55815519195114    0.54019551093471   -1.41857131783304
H         4.50205026785705    0.67233040253452   -1.23391816345769
C         5.98728868696459   -0.11771894818701   -2.55917940427839
H         5.26889572513604   -0.49325704373631   -3.27249065041055
C         7.34240684985239   -0.30325833260947   -2.77545075110750
H         7.68155767036274   -0.83360735884691   -3.65346045074822
C         8.27053715074890    0.18203614335618   -1.87060128535633
H         9.32317717649718    0.01317335204099   -2.04606625465417

