94
CSD_code = DONQUV | q = 0 | S = 0 | Stoichiometry = C31H52B2N6NiO2 | MND = 5
Ni        4.16420972679122    3.26201894154430    9.43894766697665
O         4.24598524038327    5.18544935790090    9.02770215242705
H         3.42500592934833    5.68161596142725    9.03221457137400
O         5.43668985503756    4.07277435946374   10.69675279693343
H         5.25655852176058    3.94669571660148   11.63085075155608
N         5.83605340387661    2.68033128683386    7.90807891221154
N         6.83130158556528    3.57135308993326    7.92422329818808
H         6.75193139226840    4.38811902619332    8.51859666379324
N         4.15075011405501    1.49387532319890   10.20063171507723
N         3.00282793616667    0.79144579504450   10.20691442851746
N         2.72701018274404    2.80690884502352    8.22757810699303
N         1.71929755607080    1.98072370929154    8.58089830361377
C         4.17722672564862    6.28005754568062   11.44020693542902
H         3.26914646141563    5.72532257893773   11.72288936807374
C         3.69451100443417    7.63345861841474   10.89494426137722
H         2.96684876666486    7.43828523663917   10.09840579993971
H         3.16080902032760    8.18239539367178   11.67790847310619
C         4.79607457872432    8.53673214889042   10.33386865174691
H         4.32589918755560    9.31836240662588    9.72771349995245
H         5.29854707810793    9.04871524044276   11.15189191757933
C         5.83220413320166    7.81604638810831    9.46780136739858
H         6.67614274960303    8.49467138228578    9.30416824463394
H         5.38598763299429    7.60992548839030    8.48981114822131
C         6.33444408741631    6.47254157625880   10.01924548600611
H         7.02972143342771    6.08778229967363    9.25679371550658
C         7.15958653628170    6.57938310398137   11.31073346579850
H         7.56076074638071    5.58161820622878   11.51534142965955
H         8.01301775157581    7.24869632704918   11.15842760267006
C         6.38758828377534    7.05621927864691   12.54350546218535
H         6.27913373916432    8.13821028495313   12.50829328717506
H         6.99038623411301    6.83866501210106   13.43160111233886
C         5.01174921325466    6.40902777809748   12.72460588287501
H         5.15371912517155    5.40415686599855   13.13941195966579
H         4.45561312730713    6.98086504699401   13.47486946707882
C         1.74641148920188    2.98239876978333   10.99859201677223
H         2.60551179221246    3.62696370970711   10.71279989991507
C         0.50975750394425    3.85115036166663   10.72650386921643
H         0.56932146657438    4.78151588169571   11.30178359163447
H         0.52547212665089    4.12256476744927    9.66625200980585
C        -0.82535562270188    3.17697870140458   11.03336074599625
H        -1.01915767061675    3.21121189826900   12.10312895944781
H        -1.62564116501211    3.75698486799756   10.56168250029848
C        -0.91085930859114    1.73792779033404   10.52364128533492
H        -1.12188397229784    1.78012993444218    9.45584342118845
H        -1.76586298400000    1.25025421830795   11.00346501827703
C         0.34537481785457    0.86945548834733   10.72135350467966
H         0.10557951829652   -0.09459494582825   10.26073783496770
C         0.59279141155308    0.54494740358797   12.20846982824374
H        -0.28838015674611    0.04171896464656   12.62026155968650
H         1.42684253817239   -0.15614595998899   12.26952790015640
C         0.93497821312470    1.73349258325113   13.10410738116981
H         1.33114418721828    1.34930202613757   14.05012460485869
H         0.03305194588625    2.28629715868347   13.35579228454502
C         1.97182731929098    2.66716495365229   12.48396476958678
H         2.95585312045547    2.19572004450718   12.57282561469467
H         2.00046059735770    3.59495178124549   13.06579424322235
C         7.84004503148279    3.22305047997257    7.10633062576202
C         7.46445647083888    2.02665572488215    6.52691661810326
H         8.01925352371092    1.44844699584852    5.81678073799859
C         6.20083094857761    1.72771895727774    7.06198512320538
C         9.06957104869108    4.04282368966963    6.95824288950947
H         9.35145148525657    4.11997320616432    5.91046970592849
H         9.89979236785262    3.58547769281578    7.49649800579656
H         8.90915725655986    5.04166383996750    7.35690423618028
C         5.33927469755293    0.54869733000855    6.78195065189674
H         4.39353537667600    0.66200453460504    7.30381701217924
H         5.82193570707162   -0.36634520253903    7.12204612841687
H         5.15202192768998    0.45518345074997    5.71361894013218
C         5.17246619241726    0.64146032415660   10.32086068557043
C         4.66169196585132   -0.65218766637731   10.36477221915541
H         5.21823800859727   -1.56378497257833   10.44826876118546
C         3.28504323993699   -0.51984842578370   10.26101577035992
C         6.60063653782647    1.04452494961036   10.43553416216256
H         7.17767838240502    0.63257991359542    9.60964164811103
H         7.01820679666763    0.65846030315832   11.36494529377619
H         6.68929512659543    2.12617142866336   10.42428701491057
C         2.31730151902852   -1.63947015193119   10.10962991573773
H         1.66399311665973   -1.74756139127220   10.97139372035905
H         2.87431530620848   -2.56533046468983    9.98548653631154
H         1.69949350162419   -1.48231468595186    9.22832846867411
C         2.66664666607085    3.01571860976839    6.90978048575502
C         1.60352402973857    2.28075644793642    6.39733917597288
H         1.28902845217494    2.22441924152179    5.37488434222814
C         1.04008237464625    1.62273405824344    7.48109954450138
C         3.58453997161245    3.90364382062802    6.14604596676369
H         3.00536683299686    4.57697558410863    5.51599028436897
H         4.23180612721475    3.30985946076123    5.50295738868770
H         4.20238028177064    4.48317271502145    6.82462925383432
C        -0.08597372520847    0.65449511624628    7.39280557181338
H        -0.11989570005247    0.00148074751978    8.25587984370850
H         0.04061275955801    0.05190592715301    6.49452455478817
H        -1.03959298429601    1.17488743662019    7.30683456984816
B         5.04773251611818    5.50827085305100   10.29776387248301
B         1.66338063343591    1.60439010157369   10.10859952404321

