125
CSD_code = DONQOP | q = 0 | S = 0 | Stoichiometry = C52H60B2N8NiO2 | MND = 6
Ni        6.91131854404036   28.62803266554735    3.86049718026943
O         8.11675017241044   27.16314437965559    4.10630311598781
H         9.02013640897040   27.38901987110701    4.33959610954187
O         5.66049048556252   30.06412426560864    3.67725427249130
H         4.99441018135795   29.97853830488632    2.99193671256385
N         6.72322771389505   27.95643869194356    2.11470161556967
N         7.03287944552842   26.65708123242074    2.06293452424676
N         6.93419970762819   29.19703982945058    5.67518261397969
N         5.89020909916881   29.95701089878476    6.02603661044786
N         8.58194743510466   30.07871242388873    3.37216998704284
N         8.19897084588002   31.35413485838943    3.34436413979965
H         7.28710038117505   31.59492816449979    3.71176011662646
N         5.27424156714877   27.18058138976487    4.44558185632835
N         5.62487442309526   26.35350379182426    5.42481854363233
H         6.48167681749598   26.52171252071333    5.93135338438646
C         8.00657571879905   24.63142698198337    3.59989038296051
H         7.05235446718578   24.48197796205981    4.11947805662427
C         8.07821165234225   23.53565157150202    2.52786140275302
H         8.16325216785862   22.55966574773697    3.01834077920635
H         7.12409330849679   23.52737981172218    1.99702714475455
C         9.21851428964125   23.65873698940787    1.50923245911023
H         8.95067118015758   23.07795894692402    0.62033414987445
H        10.11704428841336   23.19374514340468    1.91144528536751
C         9.55353421220814   25.08568467455173    1.06835752786171
H         8.81039587317079   25.42193738378853    0.34086574344989
H        10.51801012145002   25.06311983949097    0.54943176340708
C         9.59330501321676   26.11953270538848    2.20000097904633
H         9.80951771217035   27.08413454031657    1.71888803369731
C        10.72903268025628   25.86245028633589    3.20434363898145
H        11.67542070800990   25.73722174988848    2.66744501717433
H        10.84279920548243   26.75452990049177    3.83076426135523
C        10.53322415181802   24.65353134718615    4.12567325702636
H        11.20866228414130   24.76264996400397    4.98103281214523
H        10.83685440152539   23.74566850728215    3.60919053568867
C         9.11048767560668   24.47615794595402    4.65951546477309
H         8.93864274314097   25.22292584292274    5.43979624964128
H         9.04176772419516   23.48988526805613    5.13091488045885
C         3.40971225879095   30.07659924332880    5.01850497939333
H         3.31664993564316   28.98410152127383    5.05260237230322
C         2.73219667422031   30.60161996885541    6.29029783725936
H         1.66930529868800   30.33709246210582    6.27562106743989
H         3.17037280704937   30.07540126964711    7.14075677421238
C         2.83906111053307   32.11395343359755    6.51370992202483
H         2.06340704554526   32.61328822790585    5.93559920764136
H         2.61356245183558   32.32491646568937    7.56442754212496
C         4.19800326493952   32.74031346897966    6.17957511716088
H         4.87737104297832   32.60012965751221    7.02327907977356
H         4.05563934395913   33.82135258753952    6.07242418538924
C         4.89777394557094   32.19328250676880    4.92881860725338
H         5.89383715526576   32.66342871155106    4.92134619939270
C         4.20079964552063   32.61845310247533    3.62502310527840
H         4.11730473846366   33.71010462899069    3.58406007562587
H         4.83095194008877   32.31122042778312    2.78449386495124
C         2.80462869428287   32.02575770907985    3.41802503951564
H         2.52502456187589   32.17401851842760    2.36956269316736
H         2.08454023876596   32.58690874372524    4.00955858900266
C         2.68035389401665   30.53370409871539    3.74330610820904
H         3.06703938497220   29.95745140906989    2.89504656506072
H         1.61622062932828   30.28802721432787    3.82122764025677
C         6.40422999424970   26.08981980268840    1.03207137095836
H         6.51000665160098   25.05173590072328    0.80068831365283
C         5.65249945399117   27.05097321598820    0.38624855090777
H         5.04646439242173   26.93551633449628   -0.48914934982074
C         5.89122136132423   28.22793643907123    1.09890992097565
C         5.43770378470697   29.56785100212646    0.73447800739992
C         4.12103966411023   29.79763991282195    0.34114008115993
H         3.41348795415435   28.98076525107238    0.34489618025211
C         3.72064183796959   31.06237168503431   -0.05052268645453
H         2.69742721218511   31.23127862813076   -0.35299838879210
C         4.62769302609534   32.10909479561153   -0.05916889441401
H         4.31224699047517   33.09586338677115   -0.36372461244288
C         5.94314591347179   31.88585333999093    0.31698755332463
H         6.65603617405027   32.69788369194002    0.29571040553942
C         6.34773827150894   30.62369144727549    0.70750690371295
H         7.37476941847472   30.43120572249040    0.97473631256360
C         5.84608947187259   30.06914944773969    7.35524292871841
H         5.09772929573593   30.64402268512663    7.85602065880570
C         6.89063832299174   29.34910475546091    7.89656903860800
H         7.15314011849343   29.23962212199671    8.92884834728387
C         7.56509197985722   28.81835750716569    6.79473234767369
C         8.80878265423475   28.05082180045897    6.86518064175156
C         8.90016640727870   26.94354191181826    7.70436285918967
H         8.03006589475591   26.62208211613401    8.26055106103063
C        10.09523355909765   26.25810046779186    7.82971507915510
H        10.15405790567178   25.39523490556410    8.47673567796240
C        11.21552150066234   26.67878549349285    7.13285774268260
H        12.15068836839844   26.15010325710067    7.24161889974629
C        11.13523337471868   27.78642939802782    6.30416567591374
H        12.01245386011452   28.12569206525096    5.77216140497645
C         9.93993296759243   28.46878324916437    6.16709336392150
H         9.87221925023459   29.34077106226368    5.53356746426011
C         9.77919302650545   30.05065388740355    2.80129625109515
H        10.32112424072987   29.13131971738410    2.69369788430157
C        10.16646218525924   31.32833289031330    2.39952308936578
H        11.07404086299480   31.59931918781614    1.90165827350260
C         9.11232763297448   32.15928543861038    2.76057012044152
C         8.93381627096194   33.58828008296726    2.57451161529354
C         7.67112144212043   34.17676714643142    2.65807558812458
H         6.80048747478514   33.57270877993196    2.85918732931264
C         7.51836032865525   35.53633387182700    2.46390994985085
H         6.53424412704266   35.97640444763372    2.52962033969344
C         8.61678121505784   36.33201340114375    2.18369619378755
H         8.49377900226688   37.39389453671136    2.03201015934255
C         9.87452402662466   35.75757939722612    2.09786894689377
H        10.73532228123156   36.37268774224829    1.88046901516044
C        10.03360577219492   34.39913527226211    2.29087566361037
H        11.01763581038238   33.96022091359797    2.23169864569289
C         4.16210370386962   26.67697303431812    3.93197896528460
H         3.66256477918105   27.15834206194523    3.11358876235495
C         3.79327203087744   25.50794587125064    4.59775245946210
H         2.94814873538935   24.88538194746851    4.38969078845622
C         4.77231450951113   25.31584015166152    5.56347109396297
C         4.94582616020596   24.26488023581796    6.55015023891092
C         3.85974864877994   23.47949416208011    6.93706703714524
H         2.88782209069852   23.66902994431186    6.50798120185886
C         4.01756186008737   22.47407438256170    7.87109584910636
H         3.16782041249248   21.87443158739251    8.16267936960886
C         5.26017976540203   22.23397528415028    8.43450075821729
H         5.38235170175774   21.44682572280012    9.16345796686710
C         6.34569073857764   23.00568494473566    8.05442392547608
H         7.31874939897705   22.81786025733004    8.48418634071185
C         6.19415434821350   24.01340603808662    7.12130704993148
H         7.05698611636453   24.58606209080656    6.81705290013492
B         8.15971844762102   26.14234890041737    2.99029647665197
B         4.97230295086807   30.55262209236912    4.93032970914531

