29
CSD_code = DONTOQ | q = 0 | S = 0 | Stoichiometry = C12H7Cl2N3O4Ru | MND = 6
Ru        9.89118496704094    6.98207637088247    1.60308104795369
Cl       11.01733794792203    8.06947713042217    3.41184352173648
Cl        9.07061452442705    6.16001484125708   -0.48871332231797
O         9.74649834495650    4.31818568489358    2.97346957850648
N        11.72419053753382    6.70153336750108    0.81795133864545
O         7.15122640837490    7.53805602314323    2.69403365328759
N        10.09830048149764    8.75960500938722    0.62554286206578
C         9.81009824501458    5.32739365801365    2.45095933281477
C         8.19046808336143    7.34019889246246    2.27549807839766
C        12.15906026401714    7.73200562750402    0.06412511690825
C        11.25627804665852    8.87655284897319   -0.04013859585904
C         9.24022062791133    9.77153535761704    0.57087471428481
H         8.31195996747223    9.65779922048694    1.11640211517751
C        12.54110183834201    5.65540987279870    0.92844078553485
H        12.20258723362279    4.82415329154183    1.53521289303856
N        13.31353957332623    7.77636686569267   -0.56655892892577
C        10.69331212597074   11.05370988557571   -0.83497160174462
H        10.91818132615080   11.94486750562800   -1.39988396260446
C        14.12662739290100    6.73499030867806   -0.46344849959113
C         9.49646531640944   10.93147807319214   -0.14395836116240
H         8.76395082829685   11.72260175623698   -0.15456346874228
C        13.77372556953424    5.62036025408999    0.29822942705526
H        14.43100772938297    4.77264038308844    0.38934984342670
C        11.59315788514288   10.00483075579691   -0.78202156426964
H        12.54364863582045   10.02338458260459   -1.29040317166444
O        16.16852770260496    5.73697550255722   -1.05555804951456
O        15.76130952912379    7.78346558051359   -1.85759014114194
C        15.42327851519519    6.83686596966926   -1.20556759726855
H        17.00204035196173    5.82506537979987   -1.54573704405412

