75
CSD_code = DONWIM | q = 0 | S = 0 | Stoichiometry = C24H44HgN2Si4 | MND = 4
Hg        6.28785354073586    1.66569674314893    3.82197201546802
N         6.53810100041811   -0.98653088502249    3.35618880139843
C         6.89912090341956   -1.96863812300751    2.54503486359601
C         6.51275952104863   -3.28207280811851    2.72884239704129
C         5.70329990696901   -3.57021276782176    3.82191688596325
C         5.33213591024321   -2.55041293156902    4.67070560083731
C         5.76935494517927   -1.24339953001372    4.41968648890471
C         5.42941066317310   -0.11810389675955    5.30317327409943
Si        6.50616615470646   -0.17455079516257    6.87395599098664
C         6.19499532579171    1.38460561238402    7.92700597445975
C         8.34632447058094   -0.23887487804797    6.35968268090106
C         6.19925408138962   -1.71796576467610    7.96501911479630
Si        3.55140148475195    0.16132119624542    5.46762134418086
C         2.76552294268536   -0.27526386303763    3.78174346692019
C         2.68052607033078   -0.86468534831242    6.83090957950663
C         3.18252935904823    1.99427307658084    5.85632160295810
N         4.55559740191124    3.13134218777034    2.33031416307997
C         3.31123111725246    3.46012483845809    2.02021897109008
C         2.99404542720213    4.49308726975265    1.15938631653610
C         4.04302098290314    5.21652392230668    0.60347712836083
C         5.33876507790696    4.87347335565621    0.92251688635658
C         5.57909819363855    3.80757974778673    1.79876094416555
C         6.93910148247455    3.37636200579021    2.15514569747415
Si        7.95949670916324    4.74158038805623    3.00299764824108
C         9.19060037135852    3.95590068905070    4.23427701378318
C         6.74833780821367    5.84908825055318    3.98254654646288
C         8.98705397666732    5.86675177676756    1.84416784424806
Si        7.69867631489156    2.38436858968775    0.71323145015686
C         6.40513675056817    1.11624318093465    0.10550595847577
C         9.26538429022655    1.47642319141678    1.31336261135481
C         8.16562827772614    3.44301401700522   -0.81330211157063
H         7.52295583157955   -1.67789647153982    1.70918954444641
H         6.82556738056183   -4.05311768697080    2.04276755630272
H         5.37067716905596   -4.58269426005205    4.00401416622931
H         4.71039856709245   -2.74108631214054    5.52946337600651
H         6.20973220048767    2.28482981661776    7.31957227083268
H         5.23479991455211    1.33714295857965    8.42800593464888
H         6.95848377697370    1.48968863944937    8.69038937745824
H         8.54058181335814   -1.10631436407564    5.73643198322580
H         8.63431062380231    0.64141330716498    5.78948477025868
H         9.00195917855354   -0.29992324397818    7.22287461711380
H         5.15747580722947   -1.80993343147136    8.25209045727425
H         6.48042910061575   -2.62707627774483    7.44236035653197
H         6.78710752921513   -1.67102102324552    8.87701149668156
H         3.26883815356007    0.26013263798725    2.98080652260634
H         2.85102719073053   -1.33608842981363    3.56847865683713
H         1.71214072538451   -0.01562656960248    3.74609173967638
H         2.80639476503000   -1.93304362002034    6.68908599653417
H         3.06612799567585   -0.61267845354296    7.81344413601667
H         1.61342832677430   -0.66341373423617    6.83855536649096
H         3.52590102828474    2.26869926024625    6.84696466227320
H         3.66195091948147    2.65884525164648    5.14116819496670
H         2.11501712405581    2.18617453926193    5.81606944198834
H         2.53940545985539    2.86565858865347    2.49270106373365
H         1.96656175446088    4.73027738362023    0.93338238584695
H         3.84387468053927    6.03772385981432   -0.07096801449152
H         6.17499870781100    5.41212964979034    0.50817161870833
H         8.67564173078213    3.42948879992250    5.03515814027278
H         9.84668619517200    3.24710021728392    3.74163386626109
H         9.81428868459767    4.71568028203234    4.69416686079315
H         6.11751321161880    6.42936042830511    3.31678327793083
H         6.09364490266690    5.24624930658242    4.60591180725452
H         7.27269313118794    6.54433407686896    4.63044403440382
H         9.79598010835501    5.31182966683167    1.38031696785097
H         8.38652940678831    6.30217009048826    1.05233286206849
H         9.43155796390370    6.68577998962751    2.40196990898671
H         6.04389674357593    0.49978961117108    0.92468619147814
H         5.54553231472008    1.61925850464251   -0.32680886051147
H         6.81426086361053    0.45501593230062   -0.65211703240182
H        10.07410137815054    2.17118495021407    1.51091570391997
H         9.07316031327816    0.91531511949693    2.22415322865584
H         9.61299380779275    0.77598242596156    0.56137656522617
H         7.29286755208005    3.93057527542890   -1.23631339277561
H         8.88882067998643    4.21233155251762   -0.56794272759763
H         8.59985482444537    2.82280330811660   -1.59196223024655

