75
CSD_code = DONWEI | q = 0 | S = 0 | Stoichiometry = C24H44CdN2Si4 | MND = 4
Cd        1.87557026851813   -1.22855111762787    4.10724339173467
N         0.41391527778099    0.52127315164974    5.31693072779838
C         0.23865252598100    1.62242942151912    6.03599116495142
C        -0.97890165675528    1.99181960208424    6.57409043842139
C        -2.06937364922413    1.16023959450196    6.34305244003046
C        -1.89284314322759    0.01973279608313    5.59102317118507
C        -0.62628492959775   -0.28864280198932    5.07670462307411
C        -0.36321008455930   -1.48607936454780    4.26106254156961
Si       -0.64794081487383   -3.08348290740584    5.22875887630748
C        -2.42649644416630   -3.80558639392935    5.22855691986703
C        -0.15776374461827   -2.72734453745015    7.04658376882216
C         0.49917516241457   -4.46604275544368    4.56821861921361
Si       -1.07667685181161   -1.29453771706404    2.52642702872361
C        -2.99136662166560   -1.27485527551359    2.39269765593178
C        -0.48051561913332    0.38285450774763    1.81535194456903
C        -0.43457906132888   -2.69491753734947    1.39294883934345
N         3.55744580016834   -2.43582066324094    5.64971210293377
C         3.87228541982543   -3.18389490210352    6.69927263447936
C         5.16356133892930   -3.32858337986490    7.16836186644837
C         6.17713810907682   -2.65274773795144    6.49737646170187
C         5.85533003049786   -1.88127624614720    5.40270851028153
C         4.52101033509715   -1.78312548450542    4.98530353277457
C         4.10290665790572   -0.98464662803632    3.82123900946324
Si        4.55777371901287   -1.85618088434904    2.21209994384960
C         3.91794493330278   -3.66097165552054    2.30033230169702
C         3.71584911499113   -0.98816750914848    0.73017388847803
C         6.43315247337633   -1.97877267658612    1.82250231000066
Si        4.47789004591426    0.85406025374177    4.03689882873035
C         6.20656282657456    1.47344645403911    3.47795652782916
C         3.19216103513908    1.90005355242226    3.07931573740601
C         4.28632275897429    1.24673004240147    5.90265447158890
H         1.12180963542724    2.23263060870200    6.18384941476834
H        -1.07559552063003    2.89491176387673    7.15572148591008
H        -3.04117303911447    1.40777353119194    6.74693116963981
H        -2.71622520085503   -0.64558942210225    5.38813326900529
H        -3.43087533901759   -2.15580731107964    2.84784309318048
H        -3.40960830745493   -0.40401422280952    2.88800759150401
H        -3.15999385078471   -3.08333774955564    5.57128338665019
H        -2.71519017021303   -4.12139492725383    4.23137515071725
H        -2.49673707460955   -4.67266653156778    5.87817119555365
H         0.80546186152581   -2.22145859393127    7.08529815847738
H        -0.88539835961131   -2.08253050066703    7.52949800080362
H        -0.08448997443870   -3.63608243247532    7.63573601146041
H         0.31357184927365   -4.66830354195652    3.51878071395794
H         1.54743322021629   -4.19562003672314    4.68131441961276
H         0.33700491129101   -5.39328724222261    5.10877017462928
H        -3.31424040727137   -1.24610787040610    1.35627640875287
H        -0.79049057876170    1.20103793485660    2.45883236658476
H         0.60492248879549    0.42110812093101    1.73699861765045
H        -0.89054453155266    0.57218759956349    0.82813813703170
H         0.64320870224952   -2.82063481461175    1.47705701145316
H        -0.90371605714504   -3.64135498519171    1.63698384066896
H        -0.66042193797722   -2.47989984168351    0.35398498252961
H         3.04376252843059   -3.68820875888561    7.18242181972913
H         5.37391621170990   -3.94398250434401    8.02874669473669
H         7.20241489960551   -2.73501470954281    6.83049117059401
H         6.61505903823807   -1.34743593615602    4.85537212224741
H         4.34395738088806   -4.17477541594964    3.15704858326149
H         2.83437374994918   -3.69716216296028    2.40243428184263
H         4.18605076501733   -4.22833698410058    1.41442879066433
H         2.65626611490803   -0.81732389162176    0.91068737997777
H         4.18058899696210   -0.03102244185116    0.52237942417385
H         3.80342018539020   -1.59233035175041   -0.16647694452605
H         6.90132833614208   -1.00049531532318    1.81035420766044
H         6.94809555073409   -2.58159496735440    2.56411427766766
H         6.60620958872867   -2.43681111750538    0.85323576984897
H         7.01074718873205    0.92177865846159    3.95345184635764
H         6.32560946785688    1.37018362149098    2.40437323356225
H         6.34428890798337    2.52240531235864    3.72192558229186
H         3.20418363375097    1.67035051743885    2.01916286479605
H         2.18484109993523    1.72458983929738    3.45261179333619
H         3.40231044234990    2.96002898317998    3.18177200905343
H         3.36465889166308    0.81303762819939    6.28666967982828
H         5.10771699165255    0.83011866219964    6.47715671483244
H         4.26159249751594    2.31473059941608    6.09510381830433

