69
CSD_code = DONYOX | q = 0 | S = 0 | Stoichiometry = C26H35Br2N3O2Pd | MND = 4
Br        5.80116777951765    9.28588346468168    9.94727199999126
Br        5.82159922256948    6.63867732041388    7.78391897654681
C         5.23348901945301   13.14416405451905    7.33425997216098
C         5.14286434213394   12.71732953509991    6.01567661404144
H         4.99382633635504   13.31955218331732    5.14466987884224
C         5.26944992912677   11.31945140851702    6.05604774008100
C         5.26999269703171   10.27895538000632    5.04855341069050
C         5.12696688665192   10.52966642011957    3.68589151001318
H         5.00194776526233   11.54410311851704    3.34323048951269
C         5.14950555371568    9.46957151755510    2.79939027486512
H         5.04194455812302    9.64022673874451    1.73928466888719
C         5.31371455502349    8.18461269888068    3.29907550282630
H         5.33833943942688    7.32973080472974    2.64360107398705
C         5.44753983060908    8.00701576928508    4.66537811878689
H         5.57567338613264    7.01764559207729    5.08878637666972
C         5.17824173346531   14.47726310250274    7.90684935517144
C         5.06596571010106   14.65188968862673    9.27807803026300
H         4.99266517127000   13.82339892256392    9.96294696832001
C         5.02845649566482   15.93813830621327    9.82325749723334
C         5.09683234236914   17.03909288281925    8.98414755921103
H         5.07014299232922   18.04943456895150    9.35562292152039
C         5.20140091558722   16.86576871509364    7.60132528080321
C         5.24545179661655   15.58952926007636    7.06197910843487
H         5.34423165881278   15.43990651259147    6.00093746426473
C         5.31625627561166   17.94401441623340    5.47214688769195
H         4.45487387961021   17.38300317261025    5.08314924027252
H         6.23824686062421   17.43544924473676    5.15705466898897
C         5.29350183577142   19.37111986988485    4.93584256901450
H         6.15246726548640   19.90954362585765    5.33888599268149
H         4.39104539094190   19.86329337662556    5.30183592454210
C         5.32291225300605   19.40336342761406    3.41074161946733
H         6.23271558984918   18.91441982154277    3.05415999938668
H         4.47103450308177   18.84103585660748    3.02037678469721
C         5.27192899782072   20.83093051400486    2.87197652180559
H         4.36673114236645   21.32140542051799    3.23666590126673
H         6.12790255533236   21.39198892727560    3.25310085490919
C         5.28362263929670   20.86719731365113    1.34552945508292
H         4.43084564615243   20.29984495866308    0.96554649681987
H         6.19202889736096   20.38268503983111    0.98031126058765
C         5.22029223803411   22.29263959239472    0.81137780496551
H         4.31048528333900   22.78563382364888    1.14673467499160
H         5.23059722636990   22.29451872305010   -0.27593761215841
H         6.07175311877175   22.87052572497695    1.16380600652953
C         4.90588156571891   17.25504705106020   11.81029785011094
H         4.04261599410779   17.84174273349468   11.46762058294523
H         5.82339316636377   17.81106821427750   11.57428116940871
C         4.81209473161347   17.00621925431739   13.31146984536200
H         5.65982570783278   16.39011586765934   13.61501582714964
H         3.90167959859751   16.44020198734793   13.51423620181997
C         4.80412216216135   18.31061754576980   14.10282129194987
H         5.72198037339549   18.86625915670824   13.89607277549234
H         3.96402717764934   18.92852596049251   13.77643798853704
C         4.69292756212543   18.05919552789562   15.60462795557945
H         5.52883615143560   17.43556756948485   15.92881026718825
H         3.77194489478075   17.50953151322715   15.81084724328674
C         4.69398961715220   19.35909371702524   16.40558485497369
H         3.86215476635766   19.98617969898673   16.07654185306066
H         5.61865957302962   19.90523370290767   16.20525807221590
C         4.57207882394761   19.10152452737549   17.90233922413696
H         3.64158239614705   18.58431237633010   18.12562816703930
H         4.58505360229824   20.03820542671556   18.45459982509077
H         5.39736358470394   18.48499658722342   18.25168544454811
N         5.42813457131347   10.93670708122405    7.32845552471299
N         5.40386613864048   12.02508438511935    8.08031728151499
H         5.52131330605349   11.93683216317569    9.08450414118210
N         5.42734922375202    9.02285348908281    5.52268649960097
O         5.25388680998155   18.01379763437644    6.88301083938357
O         4.92343743066637   15.99381098249310   11.16842044921133
Pd        5.61954935399663    8.96395503060153    7.61844297983151

