89
CSD_code = DOPBOA | q = 0 | S = 0 | Stoichiometry = C37H45ClFeN4O | MND = 5
C         1.65365278738669    1.29109704914314   11.01421939287950
C         2.22336390562838    2.48611205811479   11.59785511558414
C         3.00021060143243    3.05840827876571   10.62618150563548
C         2.91494623172131    2.21654947400185    9.46757582769333
C         3.62313229851477    2.39163875889944    8.28736037686122
H         4.23469933312860    3.27377895199358    8.18577826873666
C         3.59623747199391    1.48428382825379    7.24263166480103
C         4.21183276004902    1.57256530293821    5.96099180756686
C         3.79016901184014    0.48302592992442    5.21450909591394
C         2.95202845148035   -0.29360649193772    6.05206819966902
C         2.21507576518451   -1.49023074115334    6.03942390499596
C         2.07045465282974   -2.70427586001871    5.28202374159697
C         1.25917767999459   -3.53491518742455    6.01854256933500
C         0.92746019422989   -2.83437983271644    7.22684101821037
C         0.26342241153396   -3.25272674772284    8.36770369118794
H        -0.22290979372975   -4.21485946057484    8.36462593065458
C         0.20917933523060   -2.50160537103822    9.53302454432897
C        -0.50290730023752   -2.90116325146671   10.70122315807752
C        -0.35250743182295   -1.90943838538808   11.63874645926450
C         0.47302846468706   -0.88955077774562   11.04457854970646
C         0.82461554777041    0.33782661904144   11.61578902799386
C         2.12655685634003    2.98218780397471   13.00399061756057
H         1.12282042553745    2.86305619211717   13.40741107168554
H         2.35411496314217    4.05081363107446   13.00904542685305
C         3.11863719960804    2.26154186938640   13.92009588780406
H         2.84446929377219    1.21558608748148   14.02426425682497
H         3.11407598833289    2.71686905912113   14.90766714483646
H         4.12539563242228    2.31837862320303   13.51317507536225
C         3.83991361918242    4.29066794708872   10.69971002676542
H         3.46917476645680    4.94571500786293   11.49005173817717
H         3.76319591200048    4.83624227765185    9.75594125492326
C         5.30915337510445    3.96082535834298   10.97465155864735
H         5.41345371683871    3.47178467257478   11.93985105510907
H         5.90646581626121    4.87010015196165   10.98281916402584
H         5.70082256577574    3.29209171267191   10.21164006728917
C         5.13450183473147    2.66820488667483    5.54399699189464
H         4.75556708844629    3.62407150594435    5.91279566145676
H         5.18444328954745    2.72556413119533    4.45643709098543
C         6.54141349785017    2.43297471669301    6.10194538178183
H         6.51675610200430    2.37696134989379    7.18756629899129
H         7.20586029604012    3.24270385942134    5.80880754072348
H         6.94614680366988    1.49727430813706    5.72258142365325
C         4.09194324868716    0.28452476431921    3.76535180904899
H         4.00289241296493   -0.76355664635427    3.49589935970599
H         5.11734416370937    0.59885897781390    3.55843556554091
C         3.12452480581576    1.10635758543123    2.90798728201644
H         2.09620358235142    0.83250366233365    3.13286551969889
H         3.31088829423588    0.93090504623322    1.85074957070403
H         3.23808442900758    2.16880452714548    3.11019120491054
C         2.70013143605866   -3.04189366434395    3.97203807906987
H         3.70541244826199   -2.62003801092721    3.92848558318338
H         2.80177838892138   -4.12662009553075    3.89305815085482
C         1.85975715129459   -2.53618439558581    2.79788434454080
H         0.89409059590147   -3.03572284737223    2.78774819952345
H         2.36262695613105   -2.73618698273659    1.85409580947292
H         1.68776671287016   -1.46716255081216    2.88377484333299
C         0.76656998217283   -4.90416262433575    5.69031514979683
H         0.82783367898953   -5.53395825945593    6.58159066899420
H         1.39256649122206   -5.35470575548917    4.91824590640227
C        -0.68382263411254   -4.86308530941679    5.20215246731961
H        -1.32742727768661   -4.42178826451284    5.95937101808807
H        -1.03978977932343   -5.86723369851544    4.98203509945750
H        -0.76235497748688   -4.26161593290220    4.29969312463658
C        -1.29284499563096   -4.16321364509235   10.82381115038435
H        -1.38367003082572   -4.44300943710535   11.87402786106849
H        -0.77081275731550   -4.97577349096851   10.31418607215593
C        -2.68935540392278   -3.99579946782352   10.21929595789099
H        -3.23760459732296   -3.21689127594740   10.74435325171928
H        -3.25002192948565   -4.92500112963263   10.29368469399994
H        -2.61948844304218   -3.71159656316764    9.17202817827372
C        -0.93155616876461   -1.98649409986490   13.01417700118905
H        -1.81316065674047   -2.63003769747128   12.98283314675892
H        -1.25857930643637   -1.01347947381976   13.37229423035648
C         0.08212917174968   -2.56910104093634   14.00226338122387
H         0.46334803729550   -3.52159614591983   13.64035266072982
H        -0.38690574447778   -2.72329562125548   14.97109081839928
H         0.91579248210081   -1.88449478830247   14.13025754304797
C         0.20212890302793    0.71931230478636   12.92629906181537
C        -1.06383784466844    1.52353761125485   12.72242769441365
H        -1.76935164368136    0.94702334177700   12.12700228708666
H        -0.83141810870245    2.42328246295987   12.15597072262747
H        -1.50975732714894    1.78922447799046   13.67852365884242
N         2.09001005420324    1.16015645361982    9.72713548668816
N         2.82906177709875    0.34950171474889    7.28316064312680
N         1.49287125899527   -1.60947986170933    7.18844008789142
N         0.82181582029295   -1.27499379623687    9.76096876786514
O         0.65236324586585    0.44064652287276   14.00795213870075
Fe        1.53139885901163   -0.16941820617240    8.43041290558756
Cl       -0.12057618338264    0.80110203006814    7.75814325581557

