88
CSD_code = DOPGAR | q = 0 | S = 0 | Stoichiometry = C41H39ClNO4PPd | MND = 5
Pd        0.80208744979713    6.47212412641244    3.63311962021395
Cl        2.38405086564860    4.94627629161211    2.94092150058265
P         2.31165617481305    7.94359693102334    4.38555520263066
O         1.04960597899713    7.68133590388107    1.18189413040845
O         4.93482117651631   11.32586865331376    0.96262539321283
O         3.82412975689674    7.55333788775018    4.76699124559960
O         1.71946082348625    8.41018403428878    5.85547982034253
N         2.53523921157427    9.38519852719599    3.56474629582071
C         3.97655244341131    6.63443719873315    5.80340961565463
C         3.84194270394415    7.06493100798240    7.10511583052312
C         3.58868323417328    8.49593357482893    7.35694970866675
C         2.52346601984412    9.11242371962628    6.73306328275588
C         4.32003052601559    5.31116328688812    5.49246526047180
C         4.48048229139436    4.40355226734577    6.50036032427796
C         4.26882632048068    4.77000815159887    7.84603619663247
C         3.93686275986534    6.11493679991668    8.15934377265085
C         4.36824671990444    3.82815512627869    8.89164227445679
C         4.12595120411091    4.18871364909734   10.18697328420521
C         3.75932435848202    5.50809127622705   10.49138374214346
C         3.66596089908205    6.44858057908030    9.50374629492527
C         4.44507801054217    9.26416058413152    8.19379452714735
C         4.12268568697342   10.62141009830311    8.45830831507321
C         2.97427285204389   11.18379476591815    7.86421058765615
C         2.20681956378687   10.45395305663539    7.00371716734706
C         5.63788089460265    8.73959824321028    8.73696725052069
C         6.44106802812022    9.50486696034661    9.53557362652089
C         6.09711504667248   10.83197882178641    9.83257190311357
C         4.96544320436956   11.37920785525994    9.29774069817170
C        -0.98892328710013    7.27720887207518    4.46605388046835
C        -0.82061961702505    5.13323458944299    3.36500747241575
C        -1.29955139284034    6.44877524239735    3.37607330660093
C         1.29870481746855    9.83858352520103    2.90724792487783
C         0.77443088022415   11.09713933574868    3.60055226757099
C         3.76255122650700    9.94141792084452    3.01077016587474
C         4.89456907418139   10.05947642098829    4.03358796814352
C         1.45915805713796   10.00244938159276    1.41301950840810
C         1.35060372483210    8.87258375262410    0.58377883760666
C         1.53571593548052    9.01303737416490   -0.78741708934809
C         1.81384216252391   10.25191574409297   -1.33782270888099
C         1.89455190176804   11.36903575081919   -0.53199393295903
C         1.71884022930666   11.23442267209047    0.83424008774713
C         0.97495206977031    6.53854723464973    0.34225928799270
C         4.23878143688490    9.22563926574647    1.76435241253427
C         4.10913620814603    7.86002159911661    1.60197578184656
C         4.54190820198808    7.22930354528603    0.44733328116216
C         5.10448201537435    7.97845267518381   -0.56650552193522
C         4.82508672015824    9.97964956456739    0.73641952881784
C         5.24572209198482    9.34973830957790   -0.42633047783845
C         5.43130379841147   12.13946298454090   -0.06995952200552
H         4.43330632475578    5.03732496214385    4.45570674019819
H         4.74858677342583    3.38297486413943    6.27256914776700
H         4.63101309357298    2.81006267094054    8.64282280364253
H         4.20224231534580    3.46095435907237   10.98138415462235
H         3.54543876007363    5.77668888028594   11.51548789075456
H         3.37000399028802    7.45843572365733    9.74449978987112
H         2.72274283031199   12.21127281764288    8.08312869486659
H         1.34111702148055   10.88421811093308    6.52692887712265
H         5.91849379992307    7.72424175855684    8.50326134061487
H         7.35231032941129    9.09011250082111    9.94045263917012
H         6.73878305199754   11.41816411329570   10.47365720239625
H         4.70063540486217   12.40700781059184    9.50137174106609
H         1.46981897302830    8.16205564832507   -1.44427710876058
H         1.95837310085654   10.33496850541592   -2.40486244634435
H         2.09388868423639   12.34107687957749   -0.95729250567285
H         1.79077425645503   12.11245061658901    1.45595586301058
H         3.64367486065080    7.26504548563314    2.37461319132723
H         4.43499741882407    6.15951416928761    0.35551923446472
H         5.44040033756072    7.50376926346826   -1.47689103002266
H         5.68754119935168    9.91526829316050   -1.23147719786301
H         0.41071378043226   10.83090750890907    4.58903411907750
H        -0.04785283194899   11.52611643408509    3.03272085617082
H         1.55928202443149   11.84052062093284    3.71445269670515
H         4.50804037472267   10.42963515711949    4.98109022199410
H         5.62930111284283   10.76449773203603    3.65155704451116
H         5.38432990608972    9.10578035274349    4.19728873905768
H         0.14041307322326    6.62429358832259   -0.36223284498509
H         0.81891841390601    5.68866938159531    1.01260047896353
H         1.91353204998037    6.39122925067149   -0.19741070069223
H         6.47341207174474   11.90044081033574   -0.30671819422312
H         5.37618073288902   13.15986235534148    0.30743820831996
H         4.82256696541475   12.05401202499328   -0.97556461113317
H         0.55193822779074    9.04360602834957    3.06394887771993
H         3.50753530003547   10.96477960707684    2.71395081980835
H        -0.93716106269719    6.84222502987303    5.46669624855472
H        -1.30609391179308    8.31350384837775    4.44484359832783
H        -0.99532122613870    4.51217340300898    2.49175399717374
H        -0.75189687898335    4.58072738218451    4.30793607751351
H        -1.70727110907536    6.88659691110109    2.46500601406896

