121
CSD_code = DOPMAX | q = 0 | S = 0 | Stoichiometry = C54H64CuPS | MND = 2
Cu       15.93640250950033   10.86153200437566    4.42657889418656
S        15.16848507795308    8.75296484299291    4.48142006867820
P        15.07484278440948   12.76308589781053    5.21498896616127
C        15.86093902297300   14.39392444555338    5.43980723744557
C        16.73102447033768    6.55033397528343    4.11923142532918
C        17.33347786569340   10.77298046830358    2.24277949080888
C        16.64624143906031    7.94727287533813    4.01851294712669
C        15.58050942847569    5.78366984694510    4.65178233153024
C        18.17693362060736   12.90070399052287    3.04928207051899
C        14.33747814143577   12.47181164958555    6.85432272892013
C        18.35200615808392   10.92321747216180    4.45071017260851
C        13.63467192908446   13.17440606532825    4.18083971737132
C        15.45266880421037    5.59270932322681    6.02882581152498
C        17.75044020750448    8.66405310253141    3.54104686715786
C        17.55264216360931   12.13421408248520    2.07481585221939
H        17.25345319642363   12.59467058286295    1.14610049316790
C        17.89047120374952    5.90075540085745    3.73082062433708
H        17.93812434435367    4.82410164227639    3.81568880123186
C        18.55648688823512   12.28131618021796    4.23308424276388
H        19.04566737953397   12.87276681122570    4.99426398584566
C        16.69139371127293    9.95539605959119    1.14516858949810
H        16.68098438513688    8.90821302050918    1.46262856573124
C        15.53471535494392   15.51468739717324    4.68579054897117
H        14.73518476916938   15.46579669897229    3.96019870696749
C        18.83609468487670   10.25688877324635    5.71950299976225
H        18.50730426911039    9.21276593135196    5.70086583815491
C        14.62163932876117    5.27060467079481    3.77827090389335
C        17.74606586454048   10.14828494871769    3.43648091485765
C        13.46088579812530   13.18791237679550    8.97036224896669
H        13.22356141398488   13.98187863013601    9.66355769992950
C        16.46927119563104    6.16698106635021    6.98998223227287
H        17.28762513325837    6.60194045685008    6.40704412494712
C        18.97448932473217    6.61132042844998    3.23983107669761
H        19.87189265481794    6.09499386239746    2.93262985820198
C        18.90001942914984    7.98867054544788    3.15141216518317
H        19.73734151229782    8.55979974452826    2.77298255507531
C        17.57869977868618   15.08646490023669    1.89172546485669
H        17.71912786396368   14.75540667079424    0.86529636902933
H        17.77700511453413   16.15553993116101    1.92785034590649
H        16.54274928037709   14.92242776805904    2.17869333963598
C        14.36159051248625    4.88928748448396    6.51306368791443
H        14.25756048832489    4.74884133850695    7.57860004546638
C        16.22324096503168   16.70027667063686    4.87641120586151
H        15.96182596700525   17.56944749152125    4.29077178760720
C        13.54250913629832    4.57284555132981    4.29993009032277
H        12.78842036635199    4.18195503620269    3.63144752223197
C        14.03208318694215   13.49383941219758    7.74841212138316
H        14.24127068111385   14.52244893833155    7.48801834476164
C        14.06433048808815   11.14985955309717    7.19404398173184
H        14.30405264055407   10.36170570476695    6.48963458652164
C        18.52560160097930   14.35533487079279    2.84048602013153
H        18.48100694645607   14.85352573389458    3.81619001229289
C        14.72884387379172    5.50619932027160    2.28908974150882
H        15.70349586028784    5.95972797339693    2.08159614397749
C        17.06378327139602    5.08580224431440    7.89375071296196
H        17.84974858074240    5.50845286795516    8.51731780002948
H        17.49194410650502    4.28565333600517    7.29349824745465
H        16.30675204577875    4.65747648912740    8.54602898358643
C        12.35969131734294   13.41384678828517    4.67691473036637
H        12.17395747994034   13.36607097526889    5.74032038860355
C        16.88461404981222   14.47621738645207    6.38213780556571
H        17.12393083346233   13.60390363956519    6.97438917498542
C        13.39702746438564    4.37149310745861    5.66264743058256
C        17.24164218927825   16.77599664076821    5.81121107835046
H        17.77885357138566   17.70196065438489    5.95273886402518
C        13.19197374278007   11.87020438219156    9.30609136091326
H        12.74856426276480   11.63951010018715   10.26339050068618
C        11.32783097264194   13.70614743720874    3.80149270545346
H        10.33608980050113   13.89082768522696    4.18737128571538
C        13.49181375245013   10.85111698952106    8.41665472896311
H        13.28510617934356    9.82345635682301    8.67366869450847
C        13.86182460199816   13.21574332530411    2.80670354447523
H        14.85828316024720   13.00763224966750    2.43742673492602
C        12.20773208260908    3.61269645830611    6.20168713433738
H        11.58432280661721    3.30796204236208    5.35297696451234
C        17.56827924025630   15.66136695972443    6.56900649263832
H        18.35821530049823   15.71957898022698    7.30389716870943
C        18.23784935469908   10.91079024977609    6.96508207383392
H        18.47670162717223   10.32086688229079    7.84727570400429
H        17.15101140234783   10.96888290693493    6.87610898964254
H        18.63738782666647   11.91235573950140    7.10869972274203
C        11.56028913736367   13.76011764606975    2.43730871468239
H        10.75013900049790   13.98742753011275    1.76062300674617
C        17.49560396840133   10.04463743494821   -0.15258686929883
H        17.49681719708176   11.05791004656959   -0.54814412735826
H        17.06349805628865    9.38628954492934   -0.90281482829289
H        18.52581186309684    9.74044622543134    0.02003037454547
C        20.36474666773351   10.27182015065252    5.77884981261260
H        20.74246644367900   11.29215090875042    5.78640767477859
H        20.78086138678501    9.75647963962139    4.91647232638361
H        20.70947799240042    9.76847831804695    6.67936949183879
C        15.83188140494299    7.28777805509481    7.81393308980546
H        15.03343078913388    6.89904813949974    8.44188462562747
H        15.41096647682881    8.03526578751529    7.14595917289106
H        16.57446756248891    7.76440447192989    8.45199261794948
C        11.36234231242646    4.50339658317770    7.11429630683908
H        10.46640427859710    3.97570398642745    7.43643611425881
H        11.06481241489517    5.40695002331910    6.58673816724260
H        11.92527596932618    4.79425223106127    7.99778052057718
C        13.64747216783999    6.49359227646493    1.84543842749238
H        12.65595843696937    6.07596391572326    2.00483614712197
H        13.75881805982329    6.73095037079081    0.78870360992828
H        13.72947097265068    7.41092556445091    2.42333280945097
C        12.83008793519184   13.51385534600099    1.93830221191297
H        13.00957304162229   13.54757380159644    0.87371335776084
C        19.96471283392715   14.44682395575791    2.32057179856188
H        20.65398249819189   13.97442022888683    3.01669403883977
H        20.25692605997106   15.48696034119943    2.19353291008687
H        20.05009186453238   13.94194535982381    1.36040287754696
C        15.24024893398586   10.38770028186641    0.92723475802817
H        14.68719126648564   10.32489489992332    1.86462424042497
H        14.76082644077126    9.73298253383536    0.20331714873189
H        15.18531185959312   11.40887138491357    0.55530946842202
C        12.65452203556882    2.34883137667727    6.93935831442702
H        13.25784617971978    2.60223715116435    7.80763594442105
H        13.24991584668166    1.71858011523272    6.28212161667994
H        11.78981067295792    1.78005290658693    7.27630045000213
C        14.64323028243352    4.20020927758696    1.49805043909032
H        15.39278872553484    3.49446513957752    1.85053375438958
H        14.81904387959984    4.39124283811366    0.44090256112167
H        13.66349584412545    3.74039171519825    1.60068533177953

