121
CSD_code = DOPMOL | q = 0 | S = 0 | Stoichiometry = C47H69CuN2S2 | MND = 2
Cu        1.02986021922535    9.38845172715184    4.50983047107270
S         0.28799549761947   10.73179039864988    6.14697614688514
S         3.16422095658330    8.54741043749905    4.68134054472593
N         2.82963608042231   10.69184683428787    7.11382435206280
C         1.57108084909601   10.21116708116552    7.12654610306789
C         3.06030607627542    7.61222684930076    3.21328242023529
N         1.47504207781247    9.28330684003618    8.10235230726263
C         4.08465952462982    6.70553109488363    2.89978227941464
C         0.85473236189942    8.68499203444662    2.61922730052122
C         1.96988171104954    7.74307631290964    2.34395850865620
C         5.25520365267488    6.59496174510017    3.80166048939448
C        -0.30962735503541    8.22936949010724    3.27491861882546
C        -0.24498552866780   10.79928047469076    2.21623327981671
H        -0.21569452835313   11.79780582982325    1.80834132900348
C         3.93354167506013    5.02808834530417    5.28601563101275
H         3.19371327342821    5.20885530343893    4.50006764902945
C         2.11665178673868   10.51160990789577    1.40216505254183
H         2.82094390714634    9.68066395921424    1.28915955667435
C         5.18142188209106    5.81404819507858    4.95492841329896
C         0.87567984425200    9.99201670510423    2.09155940848965
C         6.42294272257451    7.30495430416048    3.50786350530242
C         6.27538568844090    5.76387898784137    5.80636869862530
H         6.22570832073598    5.15939226296106    6.70151847494788
C         1.91197575730197    6.97042362647984    1.19074343952144
H         1.06382506616108    7.08604127357207    0.52922028717771
C         3.99623092188903    5.93935678769115    1.74978357467154
H         4.78847550644609    5.23798009414989    1.52697599640985
C         2.71333424021677    9.15861397333844    8.70299137839917
C         3.55609101840131   10.03110595971255    8.08311337976874
C        -2.60109836479430   11.26165278750787    2.99647361208717
H        -3.38247493019248   10.70282895157490    3.52387674773095
C        -1.40197261529667   10.36004938955486    2.84848884226362
C         2.91456161907734    6.06633340746773    0.89257305671490
H         2.85511747445807    5.46598374194233   -0.00317146025693
C         7.48783472132692    7.24596976598765    4.39226802999407
H         8.38007539677283    7.81446974724678    4.17975981848708
C        -1.41464779053716    9.07899016453106    3.37493701897642
H        -2.30817482694475    8.72479266028986    3.86952279050908
C        -0.39668049256921    6.80028585345034    3.76833809368047
H         0.51746783807468    6.27900711690920    3.46384134741188
C        -0.46094740502109    6.77660169132713    5.29522030316232
H        -1.36343003868783    7.26726733210435    5.65436824855980
H         0.40836344137532    7.30391999402072    5.69642873747089
H        -0.44961541021127    5.75285346383947    5.66334161874568
C         7.43206184900832    6.47908917005372    5.54626202680629
C         8.59437887924002    6.43155611625039    6.50974866085171
H         8.34625164780637    5.72314893491797    7.30899670104773
C        -3.15258037180362   11.68086613352131    1.63267184758000
H        -2.41853038270209   12.26148100092408    1.07926547365991
H        -4.04510534831326   12.28991750604375    1.75949633015290
H        -3.41196603220152   10.80461392395552    1.04174037186940
C         6.50478402930823    8.17000002446170    2.26975957505317
H         5.71785874001986    7.85312945010370    1.57821825251692
C         6.23264030438443    9.62658387496451    2.65164889511605
H         5.26064962302804    9.70223341098367    3.13069748065372
H         6.23933915365999   10.26129862399978    1.76748909462610
H         6.98789886308151    9.98761011620027    3.34691411010823
C         9.86846232298852    5.93975128204515    5.82104351359350
H        10.18543111899301    6.63607348172308    5.04886994356958
H         9.69648903907769    4.97063402982535    5.35773335330631
H        10.67575093841629    5.84022048256555    6.54429463983488
C         3.21056596088484   11.80588910190710    6.26057378966158
H         2.44717336112316   11.81243718547305    5.47143985648595
C         5.00380892999897   10.24536750269121    8.33780943466409
H         5.29435521682475    9.73461863975480    9.25123433992323
H         5.23481022801728   11.30189796923963    8.44862566265727
H         5.59126590061047    9.83809160063674    7.51690391555415
C         0.20237526964257    8.67673928891485    8.45559618760977
H        -0.43194811507860    8.85758745673324    7.57888327587107
C         4.22643964740685    3.52719802629072    5.32113140131163
H         4.63967554327107    3.20241846836195    4.36859969287749
H         3.31140241073206    2.96823091901435    5.50917330380180
H         4.94185393606468    3.28753596766566    6.10427799848763
C         3.33459569412764    5.50562683394126    6.61012391611362
H         2.39233742981519    4.99370989434116    6.80235512619683
H         3.15785676785223    6.57821139687889    6.55651381680657
H         4.01119337620606    5.30610458195021    7.43828300886730
C         7.84365898905561    8.03606546449253    1.54317606827617
H         8.65168897537808    8.49287711292526    2.10941896239938
H         7.79100630644162    8.53330183120892    0.57640032711783
H         8.08484555437618    6.98788641077681    1.37924072795583
C        -2.23799687879468   12.48402428504897    3.84237739573954
H        -1.52756573339815   13.11864460165249    3.31822224845203
H        -1.78550405497979   12.16994056275086    4.78087918332186
H        -3.12706853335471   13.07154104173095    4.06092909279276
C         3.01327044397516    8.21350775565558    9.81070386335001
H         3.98209988813169    8.45208485678866   10.23946859697193
H         3.04887973726468    7.18888809637604    9.44466386679880
H         2.26730899462247    8.27938860881170   10.59893835675851
C         3.09900693625151   13.10993867599167    7.04959213142893
H         2.08688028981334   13.23176435643945    7.42863472165879
H         3.32963444890661   13.94857424357549    6.39909530668601
H         3.79093062770791   13.11872472206752    7.88870635756795
C        -1.58464824336614    6.06437978935909    3.14855093003312
H        -1.56549413117072    5.01657722438142    3.44080356338684
H        -1.53812430045449    6.11962224839651    2.06317586934060
H        -2.52921998254009    6.49241596239841    3.47526848055375
C        -0.41372732261325    9.41631756853763    9.64259454189375
H         0.21316124394879    9.33400274729205   10.52725395613724
H        -1.38922900123102    8.99428719924448    9.86684992187226
H        -0.53811681839658   10.46845105670555    9.39828021503295
C         0.29461301778436    7.17385629768645    8.69720633781503
H         0.98427753326124    6.71613243646313    7.99442436310330
H        -0.68747577392096    6.73246023312237    8.55000254939701
H         0.61616038564747    6.94779863062839    9.70906645298130
C         8.81749723542888    7.80530347032646    7.14657963594109
H         9.62625604033118    7.76141954067263    7.87371012473193
H         7.91243894580347    8.13654078278701    7.65185715017704
H         9.07506938656644    8.54160850587729    6.38915086017108
C         1.81221378846817   11.06261943307564    0.00937424671626
H         1.29968563655206   10.31364801890572   -0.59071692769899
H         2.73939132803295   11.33075797248866   -0.49257289027468
H         1.18646378044550   11.95028539198252    0.06172663028001
C         2.77626704824225   11.56846651410171    2.28963442775752
H         3.70974981523768   11.91024338815558    1.84818224147554
H         2.98902038117967   11.13177670534448    3.26442616959411
H         2.11968168775485   12.42517812306097    2.42863656230015
C         4.57657848900007   11.63645204008835    5.60867451690717
H         5.38447912366044   11.90684985297479    6.28026226039772
H         4.63236355183893   12.28467441748047    4.73827978361474
H         4.70330340730891   10.60769652215128    5.28188041826678

