61
CSD_code = DOPPOQ | q = 0 | S = 0 | Stoichiometry = C28H22Br2HgN6O2 | MND = 4
Hg        7.26688528904211    8.44787565309366    6.83876066662387
C         8.63725555248018    6.12006771760054    4.88354213774677
H         8.09670939372673    6.52590405719994    4.05335258645482
N         8.63218422874501    6.61948954850924    6.09128173993514
N         9.38934176419024    5.83528547038891    6.87503393673673
C         9.84417263082381    4.87387990781845    6.13436907266776
H        10.49942542336551    4.10187089562594    6.47848116675208
N         9.39794107559587    5.00157809209725    4.85078202031492
C         9.66863471067290    4.17420282626245    3.74654610486384
C         9.98329309800246    2.83256709823326    3.94116962800822
H         9.99773218061334    2.41500031240460    4.93581383345158
C        10.26649524240268    2.02731366861002    2.85971584039182
H        10.51040419283950    0.98591998243138    2.99525218346589
C        10.23394752408476    2.54523232006139    1.56394540616043
C         9.89292967369563    3.88318884160951    1.37261819978391
H         9.83293366981414    4.28890349179632    0.37443153447884
C         9.61924097295926    4.69193876094251    2.45704726933767
H         9.37220019861316    5.72925428538613    2.29513151212718
O        10.47507542246341    1.67066724017320    0.55754508912134
C        10.88167186598411    2.11038698532716   -0.68509661815597
C        11.83979723782710    3.10372384445036   -0.84909151683073
H        12.26334189182923    3.59330244597116    0.01597434634512
C        12.25380923863319    3.44745919124275   -2.12339546920321
H        12.99640027625470    4.22103414645157   -2.24873198299828
C        11.72749383561406    2.80297146164980   -3.23001032400467
H        12.05444568455007    3.07722387112597   -4.22118620241491
C        10.78695696096075    1.80066210937588   -3.06050459657026
H        10.37932321933987    1.28901653300208   -3.91910148535223
C        10.36080051388105    1.45208750508836   -1.79241149220004
H         9.63024481674351    0.67292638519992   -1.64099046684778
Br        6.58547858780472    9.00442384997074    4.57142638729377
C         5.89748829946350    6.12255446642450    8.79760003701614
H         6.43971988830215    6.52743456642142    9.62714713204572
N         5.90277478212555    6.62177994757558    7.58976299328103
N         5.14269325698812    5.83957890418387    6.80688706132043
C         4.68608606089824    4.87940062101615    7.54805198188938
H         4.02829399975643    4.10916588288325    7.20490347655663
N         5.13403720537453    5.00602430270819    8.83115426166043
C         4.86366872719252    4.17811741208332    9.93504177716962
C         4.54682116961543    2.83711726209088    9.73953185690389
H         4.52962947377102    2.42076995853672    8.74443520819382
C         4.26484513623076    2.03099528805616   10.82063422877350
H         4.01910015267759    0.99013538843092   10.68438615102447
C         4.30105400770970    2.54725181298651   12.11696838238896
C         4.64411192791564    3.88460887642269   12.30906303835603
H         4.70705718938585    4.28904693499493   13.30757699587314
C         4.91633719932065    4.69432122479840   11.22499733883072
H         5.16497785068531    5.73117079206703   11.38749315541126
O         4.06148138426375    1.67154322551518   13.12275226072695
C         3.65863219987090    2.10994555012231   14.36703780468337
C         2.70374512659461    3.10572281716374   14.53492627072201
H         2.27917164630598    3.59754587690651   13.67165365831672
C         2.29422964242768    3.44904481563773   15.81074689681979
H         1.55413822209590    4.22452043816050   15.93902443676382
C         2.82139807872084    2.80137887617701   16.91507410759861
H         2.49808888196028    3.07543764721392   17.90748149642885
C         3.75803157002203    1.79609527604547   16.74167124346659
H         4.16634352745670    1.28202126165737   17.59848565094046
C         4.18002332086423    1.44817310976553   15.47203319167163
H         4.90778957341942    0.66699901601488   15.31762585367576
Br        7.94656412486055    9.01223994907373    9.10465154393535

