93
CSD_code = DOPRUY | q = 0 | S = 0 | Stoichiometry = C49H39P3PdS | MND = 4
Pd       12.23573078292054    4.71690253193413    5.30111481925424
S        10.95337843721319    3.69910742701797    7.08403038185309
P        13.94532208397415    4.85062233480015    3.85588500634056
P        12.82764336237036    3.99463348898234    7.74021828834082
P        10.48920807720824    5.89976823101432    4.33576299957261
C        13.75400226861903    3.73776590316422    6.31471383148874
C        15.11894733552637    4.01993320007446    6.07050682991164
C        16.18272721214828    3.70361030230525    6.93568690358120
H        15.96062571255020    3.34276386246738    7.93182307129564
C        17.48297569072663    3.85186733132926    6.51649194181894
H        18.28924692377890    3.61454164872232    7.19715057572143
C        17.78862362488892    4.29574837782230    5.22986286263366
H        18.81905968207530    4.38903542375605    4.92134899364954
C        16.76840628444407    4.62669829847274    4.35715195043597
H        16.99087092121706    4.98027362388751    3.35890378566682
C        15.45530827311211    4.52454166319712    4.78690066345420
C        13.77571617492316    3.33782581729038    2.85494095678329
C        12.92116583031973    2.33862862536626    3.32676849845248
H        12.32502639152050    2.50843957241531    4.24007851219565
C        12.82324857858642    1.13852860760095    2.64586455098754
H        12.15991933730800    0.36667783020426    3.00798516985104
C        13.57232593287569    0.92854519639666    1.49866700132157
H        13.49145320036472   -0.00748161337074    0.96561004722202
C        14.42709076992424    1.91586900455294    1.03406058294076
H        15.01324868847720    1.74708035525634    0.14226384862594
C        14.53571516578471    3.11682899888228    1.71090756194358
H        15.20298871144124    3.88940802475445    1.35377136435152
C        14.26048185681094    6.16379372989285    2.65072073226235
C        15.19714904311221    7.15783299533370    2.91412056177976
H        15.78318241441010    7.10904153011694    3.82170386175525
C        15.37035949393447    8.19804633668584    2.01961108265560
H        16.10829682191592    8.96166290405094    2.21873296912628
C        14.59504070230097    8.26607301022795    0.87412376798005
H        14.73073436962255    9.08047010359444    0.17786027143688
C        13.63770674824066    7.29506549212867    0.62478756080335
H        13.02268253770802    7.35659734746286   -0.26117975301413
C        13.46640169654325    6.24890152893235    1.50974634706670
H        12.71588297349537    5.49085006638950    1.32512488832304
C        13.13008136199407    2.93999092609465    9.19010732702174
C        12.62137673371126    3.27069024842449   10.43903747179625
H        12.10508635110913    4.21264842223366   10.57276123589654
C        12.78498763258035    2.39224909984164   11.49371207014973
H        12.39679994324142    2.64392152626182   12.47033185041060
C        13.44440816157808    1.18834270237083   11.29858281059960
H        13.57187312469562    0.50622240621552   12.12671879117809
C        13.93311308475570    0.85182501213988   10.04601260580819
H        14.43834675287800   -0.09167483337852    9.89717698301497
C        13.76868128241325    1.72469695997365    8.98653063061375
H        14.13132837998064    1.48602722993069    7.99406622336771
C        13.00978407566411    5.71281116061795    8.34581643734264
C        14.04199967940576    6.03750211123036    9.22246085600943
H        14.61514567395822    5.24590130251647    9.68741697611399
C        14.32168759833901    7.36303760165586    9.49383640058702
H        15.12091882786763    7.61338464268403   10.17687758674782
C        13.58632720990875    8.37080353494867    8.88879666398389
H        13.81071004673419    9.40551400679786    9.10329896913091
C        12.56440708370721    8.05160101065993    8.00698101164382
H        11.98608072708060    8.83624498822555    7.53864667241401
C        12.28374616941960    6.72801241019524    7.72478873778559
H        11.45165513128405    6.47268768935398    7.05766811330505
C         9.16565316014028    6.48206892373010    5.44334907444779
C         9.05808585987136    7.79768947098596    5.88015254890352
H         9.74354956861324    8.54933103502650    5.51182469436853
C         8.07019960728080    8.14135296237969    6.78662021333475
H         7.98589282838425    9.16468051982045    7.12354708167841
C         7.19590904309407    7.17976668789247    7.26439146845522
H         6.42944339098530    7.45349191350946    7.97455739752268
C         7.30904770891976    5.86474174893105    6.83925988620800
H         6.63503396004369    5.11185194465882    7.22003334790859
C         8.29297047619340    5.51366932248308    5.93651754627956
H         8.40731644488075    4.48617594822605    5.61458448482749
C        11.15117564903564    7.46482504317751    3.67696178761837
C        12.26398296644213    7.98298890749251    4.33610671485070
H        12.71025997013233    7.42006645422722    5.15987444988256
C        12.80729968123264    9.19039618081640    3.94112385498237
H        13.66226016570814    9.59423857540243    4.46320993852504
C        12.25918146462757    9.87425352858016    2.86799678303349
H        12.68719027850468   10.81404066424258    2.55182988115236
C        11.16872545423775    9.34971920748619    2.19415306268692
H        10.75015855805439    9.87976969960035    1.35087930959835
C        10.60803553087955    8.15121006291921    2.59833904336343
H         9.75515194858971    7.74520967232001    2.07335756266391
C         9.53982045144266    5.20874724346972    2.94904664524387
C        10.14057866785579    4.18595484571152    2.22373275563930
H        11.12264313866142    3.83730769513479    2.52682562556032
C         9.48714715308520    3.61573743152657    1.14700257125786
H         9.95978437453187    2.82097284577314    0.58814745602490
C         8.22330124335684    4.06149205398559    0.79599727638412
H         7.70592155762425    3.61568904164922   -0.04079804694227
C         7.61500672387080    5.07263218984950    1.52402395317768
H         6.62536633651627    5.41130351437757    1.25300810673183
C         8.26648376076250    5.64826221815607    2.59956333285751
H         7.78658373188216    6.42762317448057    3.17583047687900

