71
CSD_code = DOPSEH | q = 0 | S = 0 | Stoichiometry = C23H43OScSi3 | MND = 8
Sc        5.53585901896625    3.75299200816878    7.01899558984894
Si        4.58110080674871    1.47112730548411    3.90936418046093
Si        7.51035322582919    6.39315715798913    8.32331000428611
Si        7.10089941053257    1.32278481873548    9.12143574639848
O         3.52467994080193    3.14579578691024    7.96871018973232
C         3.80360653877174    4.05526149692151    5.09249416437500
C         4.83647126450664    3.15921116121738    4.66929090453984
C         6.02661906215012    3.94034203397258    4.60432057543152
H         6.95618945433646    3.60021253406017    4.16414336708038
C         5.78259651451336    5.25103910701268    5.03502604285957
H         6.47200102127778    6.07972157139354    4.96388977355709
C         4.39381836159808    5.34928525106222    5.34605967715569
C         3.57212158962181    6.43055510932914    5.70692457738260
H         4.00415036424265    7.40742175595415    5.88360096006003
C         2.21290249236038    6.24143115008175    5.78756895675484
H         1.56796046737210    7.06924854827556    6.04751666573988
C         1.63478291379925    4.99236306113241    5.50888283546207
H         0.55808526027050    4.89602283598443    5.54761790266864
C         2.40996329758606    3.90931758806069    5.16928103564882
H         1.95305988555256    2.95850030638007    4.92299104213034
C         3.57610236457307    1.59535037694612    2.29371532719998
H         4.10487261081802    2.17873697571707    1.54516699761950
H         2.61682704330706    2.07609892844489    2.45813496447574
H         3.38558369079765    0.61311854210185    1.87178769987992
C         6.26274461999897    0.66463958776020    3.53112465471408
H         6.88409926649007    0.59752838939455    4.41884436142865
H         6.81263443783168    1.22804366270944    2.78313569847649
H         6.12870021317779   -0.34102379706487    3.14604592170768
C         5.94188763577773    5.35452447918099    8.51863965028750
H         5.07089750692166    6.03315754692981    8.50317143801481
H         5.94951021446518    4.89912363064966    9.52103683689728
C         7.13296531730536    8.07922290489151    7.49000838612141
H         6.56379955717482    8.72513541065035    8.15145131221964
H         6.55390569781162    7.95227071085834    6.58067307121702
H         8.04623417731297    8.60433175331017    7.22735527521279
C         8.77040020272435    5.43926358102693    7.21971928730036
H         8.98265249103764    5.97241302605908    6.29833200060603
H         8.37965740016933    4.45184176157508    6.95395357896906
H         9.71641429122613    5.29177680159150    7.72952136108231
C         8.39560967239749    6.79081121419772    9.97793298257590
H         8.68408403596566    5.88136573645983   10.49598059581694
H         7.75316322174463    7.35708288412766   10.64519448488425
H         9.29645870960493    7.37500415647584    9.81663398057380
C         6.54665671278254    1.79737747139429    7.38367959814988
H         5.86763703391033    1.01624801539160    6.99849567327206
H         7.43883087593215    1.75349844732537    6.73613857129131
C         5.65664165007825    1.51836980586136   10.37260959749525
H         4.93900019766129    0.70729868140761   10.29217344863681
H         5.12928479843265    2.45518986859824   10.20923854673714
H         6.02367258910390    1.52113728615645   11.39380877373826
C         7.71750424503204   -0.48809252771982    9.30035319267833
H         8.58206211465163   -0.66915665934877    8.66923948360882
H         6.94993038417161   -1.20039251311701    9.01178670439097
H         8.00615313815203   -0.71509116359429   10.32220193310688
C         8.52144897681679    2.47131374040091    9.68702557071004
H         8.22803596964969    3.51394068464671    9.60831029030352
H         9.40520564050972    2.33186533449880    9.07287154264833
H         8.80688531114485    2.27781726512957   10.71640193583688
C         2.94444098405607    1.82788320281521    7.92001600743486
H         3.71249790449343    1.10458321436675    8.20346146533274
H         2.61860601160534    1.63137093503293    6.89136086073878
C         1.75514855480795    1.84212444687234    8.87460638007102
H         0.98966306804010    1.12569323822935    8.58798610019470
H         2.08136799098000    1.62691216381257    9.89263542729845
C         1.29450901737888    3.29167630959992    8.76211520563084
H         0.69927189209828    3.62150627243427    9.60962591995127
H         0.72588015148818    3.43945870395256    7.84410559206141
C         2.62822758339979    4.02284469562115    8.67336373233348
H         2.56035833925375    4.96615783860083    8.12493980022340
H         3.03682293173481    4.21100745671605    9.67499441980645
H         3.83033066316188    0.56914893279278    4.83247016748597

