80
CSD_code = DOPSAD | q = 0 | S = 0 | Stoichiometry = C26H49OScSi3 | MND = 8
Sc        0.41437905323998    6.86690129582382    3.50937210832803
Si        3.76034420849915    7.58371849962655    1.43906070189744
Si       -1.29033411971143    4.50237649675338    5.53433983856617
Si       -1.63116140588970    5.95198561485162    0.62155254082427
O        -0.50605679796731    8.97147988562783    3.23093661109737
C         2.44400491925655    8.43367213860610    4.05100711034806
C         2.81447695957933    7.45147600243988    3.06255704475463
C         2.76595026298517    6.19096944398529    3.73588746321868
H         3.14221450577119    5.26628840698064    3.31924474721820
C         2.32455352954287    6.34270933071001    5.05153064342927
H         2.32364278148385    5.57436197242949    5.81072574927769
C         2.12581566649573    7.73706658028583    5.27716009732615
C         1.82516263845920    8.43555674974060    6.46665945362985
C         1.84427329408789    9.80960782247549    6.42127947159263
H         1.63520407855298   10.38116493735345    7.31527231278745
C         2.15724751345659   10.49533038741789    5.23925197268086
H         2.18444123291321   11.57698595165271    5.26908838842287
C         2.45263229354810    9.84841219414591    4.05948113187289
C         2.91257656655952    8.60785100398605    0.04789259803978
H         3.26000815178581    9.63565519101321    0.02926530727620
H         1.82877057726442    8.62109994542134    0.14320547769116
H         3.14268566581639    8.17678774595090   -0.92192029220188
C         3.96235995341809    5.81577150599697    0.73131875186696
H         3.01048751823525    5.30123930054667    0.63801263967990
H         4.60747075187836    5.20871632214771    1.35867942626812
H         4.41427257652000    5.84770571976417   -0.25559075133046
C         5.53807589715484    8.25141076038983    1.69215345871806
H         6.02863511197783    7.74199164481691    2.51626057757183
H         5.56231152251991    9.31433553366639    1.90989258218599
H         6.13766686743099    8.08959218991887    0.80108076272148
C         1.55426144122829    7.68621795661650    7.73794265075932
H         1.22485514246068    8.36453510393987    8.52223931112582
H         2.46204085225230    7.18549892641864    8.07646297102843
H         0.79172226041898    6.92253484416384    7.58504284705640
C         2.80879265838953   10.64846490663374    2.84288842868984
H         3.84960516832903   10.48224579242484    2.57293027634087
H         2.67127094495397   11.71220127041096    3.03031211918905
H         2.19655917591454   10.35924390695535    1.99223922841288
C        -1.11478605528499    6.32022992935405    5.04876051137395
H        -0.90933947026422    6.91498473746369    5.95489552448718
H        -2.09455230245837    6.66739079433663    4.68892039859682
C        -3.10795197364702    3.92214013976163    5.73304049123141
H        -3.67239807889178    4.09338766010338    4.82157599863979
H        -3.61119696580021    4.45535901152666    6.53370390454157
H        -3.16673961097384    2.86177839694230    5.95822177776447
C        -0.40700268808050    4.09081820928017    7.18679341716904
H        -0.82724102804637    4.65502961604314    8.01399854767600
H         0.65358692409512    4.31608798356568    7.13874314140702
H        -0.50352537512378    3.03730889902849    7.43013515160233
C        -0.50173523339832    3.41229103462796    4.16584963404801
H         0.54154225598257    3.68369247506055    4.00507275544224
H        -1.02481739966400    3.54319460592336    3.22234463482715
H        -0.53278205017143    2.35624289106050    4.41616211763731
C         0.05876066700190    6.06953953360061    1.45073747228222
H         0.72430839576267    6.62635168467447    0.77072018531210
H         0.47153301304603    5.04700906154952    1.48710929339850
C        -3.06305910002910    6.26041074549511    1.86171905133666
H        -3.05849490636863    5.50573432311216    2.64240809682844
H        -4.03139830302995    6.22080396925055    1.37109215795729
H        -2.97948226755623    7.23051081401997    2.34597245477121
C        -1.80909823000999    7.25005484327882   -0.79103159759220
H        -1.74583989269182    6.77359361205735   -1.76394873431048
H        -1.02566536575382    8.00152522994120   -0.75254054248603
H        -2.76257035732209    7.76815297323521   -0.74702823389991
C        -1.97876257390491    4.23520075784575   -0.15637652943009
H        -2.95821643158902    4.19494579480559   -0.62339034688751
H        -1.94422545484679    3.45489788750275    0.59790786117806
H        -1.24264283892468    3.98803449041679   -0.91518003546837
C        -0.81933593951718    9.62971179417602    1.98867518715363
H        -1.50915018711044    9.00481041364738    1.41443540113885
H         0.11497378902848    9.73146172019502    1.42788174953565
C        -1.42660089961470   10.99529597328828    2.33081351777171
H        -1.04822212275627   11.78167692869958    1.68251513356946
H        -2.51240907028290   10.96251325927265    2.23945820986788
C        -1.02450575311491   11.18862860952876    3.79096903397760
H        -1.69948578041534   11.84182636204405    4.33747732359145
H        -0.00899858526077   11.57615670306309    3.86262313026362
C        -1.05877787043850    9.75405017017416    4.29732007128816
H        -0.44914213761578    9.59321373693878    5.18892588844852
H        -2.09247216366309    9.43498894200288    4.48990103563954

