37
CSD_code = DOPTUY | q = 1 | S = 0 | Stoichiometry = C6H15AgN15(1+) | MND = 3
Ag        6.75484446667670    9.51979049047051    5.48049581965477
N         8.15251827404198    7.60359091283085    1.82642038650815
N         7.26784637783728    9.37909922611061    2.53148591689703
N         7.45829055525119    8.60631477926234    3.61045545736790
N         7.12693488647499    7.83856864216424    7.10960086108390
N         7.66618434326919    8.80960111897783    1.48860767071529
N         5.72769700598419   11.22689201176257    6.48669930309272
N         4.68477300973925   12.93644038420821    7.30467328069756
C         8.01926640766898    7.47651475006492    3.17392795304127
N         4.87915103371271   12.04006044904973    8.27991296260651
N         7.67418808791601    6.68436557963178    6.71489412809172
N         5.48530223891453   11.05425299175340    7.79059403212030
N         7.33831233905582    6.47581628269444    8.77957298405863
N         7.80385943681181    5.88058506669490    7.67332186158313
C         6.90948671641908    7.71765740287353    8.41909416486788
C         5.22407602450929   12.41741706636978    6.16998374806550
N         8.40149440477362    6.44271610717419    3.91355862256505
H         8.73062697385931    5.60018094699099    3.47897450147254
H         8.18638287957368    6.44970822109176    4.91161696105656
N         5.27273278456642   13.00987312209960    4.97802591410770
H         5.64551882447237   12.48845188442615    4.20170175732021
H         4.76435525351476   13.85653565540426    4.79748771590325
N         6.40320939850107    8.64263264249178    9.22638637738619
H         6.06164781262538    9.50866849196666    8.81481782341037
H         6.18608268360719    8.42436204220292   10.18165746753679
C         8.69935530359237    6.68438631956107    0.87419075345409
H         8.64277221581921    7.15632957001004   -0.10423758453598
H         8.12272201866759    5.75777131450982    0.86189560120384
H         9.74176383417322    6.46517398617232    1.11092149255153
C         4.02641295182960   14.19164665506853    7.51135658248458
H         3.74661550674974   14.24513804744772    8.56123178291595
H         3.12832241281128   14.25822000638885    6.89512735052203
H         4.69840153974973   15.01740312231619    7.27323164689733
C         7.33774587518148    5.84752973412681   10.06658973243064
H         7.78047108647141    4.86090661334926    9.94936705950952
H         6.31785367194009    5.74321200537421   10.44071264119835
H         7.93088136324996    6.42898635693895   10.77404527014935

