31
CSD_code = DOPTOS | q = 1 | S = 0 | Stoichiometry = C6H14AgN10(1+) | MND = 2
Ag        5.47924887716545    2.19502710274858   14.60035270242749
N         4.32105550156812   -0.12813723717021   17.02322802204588
N         4.78655067752770   -1.97190064637410   16.03839412998706
N         6.40367823839543    4.45488570573710   12.03986166901799
N         4.23241887169915   -2.22734958615395   17.23359157522238
N         6.22650953528393    6.31888777352264   13.07918978283030
N         5.31892835415836    0.07295891181709   14.87138646584935
N         3.96277468336059   -1.16140852837432   17.80505797161350
N         5.67245375555234    4.31132648510626   14.30074270961574
C         5.20789703626057   -3.01174728704275   15.14607194242165
H         4.98561211847772   -3.96064934833742   15.62884358349936
H         6.28097999108531   -2.94444753467444   14.95820158968557
H         4.66427684896137   -2.95046443796954   14.20165766373226
C         6.06030743647505    4.97112867393326   13.25471818878932
C         4.13766019261324    1.23335039227532   17.41349084901350
H         3.66155186768251    1.22907602369583   18.39203107171915
H         3.49065599692933    1.75286609371238   16.69629557312149
H         5.10508150983985    1.74565512799881   17.48237608172683
C         6.42514442835668    3.08791229765774   11.62739272542658
H         6.78265071113624    3.06483427393938   10.59970364420300
H         5.41755908992016    2.65821131315543   11.67107438117894
H         7.10630367738759    2.50777220410962   12.26307564698742
C         6.02120873340971    7.38016334385570   14.02081053121036
H         6.27558888058833    8.31034799677642   13.51777373061251
H         6.66753127649989    7.25082365906651   14.89067887041391
H         4.97800037591289    7.41530014513610   14.33921238814482
N         6.64372630740079    6.54142803389715   11.82327009986256
C         4.85957578906334   -0.61524072177216   15.86903738545162
N         6.74674106041805    5.46383367043762   11.22022838589392
H         5.47347433045934    4.93094763021724   15.07797490483723
H         5.66195384641093   -0.52989153092719   14.13217573345919

