60
CSD_code = DOPVOU | q = 0 | S = 0 | Stoichiometry = C22H36SiZn | MND = 6
Zn        3.02417228915945   13.05679202531388    5.43286501588037
Si        5.72066613051114   11.12669782198086    5.87048485766004
C         5.00600132734428   12.69943562284307    5.04470447655979
C         5.74517851881002   13.90945375419900    5.45345963723549
C         6.36200146081787   14.44324786752812    4.36541246866649
C         6.00720694078653   13.66901584691721    3.20174175254557
C         5.17127164406531   12.66466309783133    3.57842033038878
C         5.81868285208372   14.41580450047222    6.85740264710409
H         6.77491786699985   14.16575078286207    7.32029868517936
H         5.01844082639349   13.99230966657213    7.46335245269520
H         5.72060543949774   15.50073746876934    6.87369645978650
C         7.29093901073023   15.61309468334387    4.34085753997453
H         7.12918166605949   16.25455114074553    5.20385908328551
H         7.15688588755350   16.20295786152496    3.43653790192303
H         8.32699562645366   15.27115222637260    4.36270717617978
C         6.52529558942836   13.95623592253367    1.82999450380463
H         6.07616970601987   13.29122053648063    1.09663734691321
H         7.60717416487059   13.81837992162340    1.80153747491015
H         6.31911618882311   14.98667815885424    1.53791966952435
C         4.54027262940473   11.64042698771073    2.69102351249632
H         4.15595537515506   12.10708059067877    1.78537771193890
H         3.70972688257181   11.15239750921617    3.19956864457083
H         5.26057584071114   10.87703336895363    2.39108543480715
C         7.56186958194003   11.01771102190128    5.38179439647998
H         7.67585667062812   10.96230006143893    4.30392785014610
H         8.03678260340336   10.14228460076618    5.81342375212342
H         8.10662146504319   11.89359628386742    5.71935194809914
C         4.80876605602110    9.53929199917692    5.31934308273025
H         3.72983871883942    9.63993275817084    5.40269074544987
H         5.10723383481600    8.70687340844458    5.94829758331282
H         5.03940998808451    9.26894947211983    4.29580406421831
C         5.55982833902415   11.17361879013613    7.77513613924126
H         6.23636595118151   11.88971916617916    8.22608796919163
H         5.79903132841467   10.19908150820101    8.18823946999779
H         4.55054469238673   11.42270761343893    8.09214071676770
C         1.29864269118398   14.23870105837894    5.18671626005003
C         1.37734237330895   13.90412001163559    3.76081853745729
C         2.27989627164131   14.75826171527607    3.17128727574101
C         2.76936968837533   15.67480111880427    4.15647746066916
C         2.16864758710401   15.40052124070966    5.36373631937337
C         0.02517667231217   14.07168370585073    5.97382004897671
H         0.18900763398193   14.22229302543472    7.03867921107066
H        -0.41305142796327   13.08678757490011    5.82784387281632
H        -0.70012308926975   14.81580322786260    5.63666674439239
C         0.48861380491082   12.90049669765804    3.09074757774815
H        -0.43896512086322   13.37650955644157    2.76499516912987
H         0.22865775879097   12.08718156431441    3.76701948602327
H         0.97039738787747   12.47269753131982    2.21382658218580
C         2.67395053582120   14.81679908537618    1.73093930711867
H         2.33355901427664   15.75268049871357    1.28568616996486
H         2.23625091996900   13.99510180336659    1.16972404333544
H         3.75684110251993   14.77350767208363    1.62978684900489
C         3.73798345058177   16.76687046524024    3.84260250510531
H         4.62779880326212   16.35377823279917    3.37133179069357
H         4.03865897316826   17.29809130111671    4.74163266891722
H         3.29170380196828   17.48393626151331    3.15232613751851
C         2.24037109779343   16.19921511765355    6.62967900522871
H         3.18845958402919   16.72666461410041    6.70570231580231
H         2.13305792239003   15.56315806023392    7.50757590678878
H         1.43986946883771   16.94215481186564    6.65259625324250

