70
CSD_code = DOPWIP | q = 0 | S = 0 | Stoichiometry = C29H39NZn | MND = 6
Zn        2.19672049159985    2.94119797945916   12.43901852007666
N         1.70081815221951    0.39371398324867   13.94069484716771
C         2.05490885217957    5.09290230626978   12.74526052766749
C         1.12064104745873    4.82505030838916   13.79215594222278
C        -0.06931457315200    4.37603798088493   13.21772618936483
C         0.06402936291720    4.38875387366279   11.81033601163900
C         1.35520151468264    4.83029788871692   11.48711315243093
C         3.21975099208229    6.03486652969119   12.86549721366734
H         3.74406278773487    5.89814708177646   13.80945953412989
H         2.85965694977492    7.06618658387567   12.83035112344611
H         3.93285753060277    5.90205422947030   12.05386709455244
C         1.35594880865037    5.09825095430510   15.24604385974038
H         1.05753297017102    6.11971806542413   15.49249167511102
H         2.40728219626473    4.98323105983696   15.50480250588650
H         0.77814155359180    4.41927328767965   15.86946601916776
C        -1.33123760999156    4.07133170965557   13.96491981947714
H        -1.97593022551734    3.40587485010567   13.39414952753432
H        -1.88865574662960    4.99116477503500   14.15408467369773
H        -1.11520378920261    3.60718481589752   14.92527823097354
C        -1.03723070909703    4.09612290484594   10.83584648278382
H        -0.63819279898994    3.88691596150554    9.84546256006063
H        -1.70978229723610    4.95260799876512   10.75472087015154
H        -1.63025903739810    3.23892204997887   11.15358153456943
C         1.81659088078017    5.35240631848289   10.15843973756058
H         1.61443388485647    6.42453644512811   10.09373868453303
H         1.28979060441789    4.86629600893287    9.34037335868599
H         2.88696455409585    5.20760446981896   10.01522421675314
C         2.00671111000605    0.92558254758242   12.85567512899002
C         2.31502511175619    0.06820398981841   11.65327509066113
C         1.38858097864740    0.55676924141993   10.56154414772061
C         2.10078979172424    1.25666502747237    9.65713977480147
C         3.51843730831778    1.23036287434240   10.02895712713937
C         3.67278919220503    0.50763065000635   11.15626612248776
C         2.20730824961690   -1.42520429526395   11.94377461790198
H         2.89946612952871   -1.70372184418259   12.73277799685287
H         2.44035962391444   -1.99081858435010   11.04467347191364
H         1.20132698536761   -1.67004525597025   12.27053241433106
C        -0.06712924350936    0.24661558080628   10.57992827956605
H        -0.43767453510679    0.22764126157517   11.60235001862171
H        -0.24990739904167   -0.73417322299384   10.13731453667893
H        -0.63284379169187    0.98298616495571   10.01472260962650
C         1.61752324614004    1.87922259747840    8.39122064083953
H         1.89964782067095    1.25763853001232    7.54051320150831
H         2.06480326495397    2.86048619128327    8.24875508128548
H         0.53554487798719    1.98013539269381    8.39362208898987
C         4.57555507816598    1.85847423967051    9.18442843823277
H         4.36429668233819    2.91613479463179    9.03187644591614
H         4.60442820280948    1.38067171394971    8.20541320602647
H         5.55488053802836    1.76111627653100    9.64439937686162
C         4.92335804565189    0.13616121355245   11.87625363503027
H         5.27218053434630   -0.84273669633296   11.54287361900619
H         4.74324641239974    0.08065379488770   12.94722877184639
H         5.71610694417773    0.85757606650167   11.69260060041862
C         1.38401165297806    1.03043623465812   15.12789441248270
C         2.38098007929687    1.54386872669149   15.96670276491037
C        -1.00100256590458    0.45219674103982   14.62781175778879
H        -0.69800463393790   -0.54215722974487   14.30157240095019
H        -1.11977753879918    1.07536500604456   13.74139466999404
H        -1.95983390812239    0.38586237266440   15.13567325671622
C         2.01000035677426    2.08257147626993   17.18874255359263
H         2.77351292324731    2.48154677470613   17.84126569419715
C         0.68435387056946    2.11944476020140   17.58184551208110
H         0.41325951765962    2.55088273754832   18.53388228959609
C        -0.29123186471123    1.59122657488672   16.75494930861484
H        -1.32672535606204    1.60492110125787   17.06469071206538
C         0.04196737379101    1.03608738478467   15.53116114893136
C         3.83021959613398    1.46547478661909   15.57716456236124
H         4.05934348662911    2.16392633000812   14.77039062177546
H         4.07137781957419    0.46012457560926   15.23335037113399
H         4.46341168459370    1.70524297584454   16.42788760648335

