64
CSD_code = DOPWAH | q = 0 | S = 0 | Stoichiometry = C27H35NZn | MND = 6
Zn        4.59947431355050    4.14362029916339    5.53600100579566
N         1.98735926940354    3.63773519541155    4.14215918334835
C         3.23157222174316    3.67373274597186    4.06859121724507
C         1.22120973314055    3.95342696861261    5.25335584217605
C         0.55749997496369    2.90695022294247    5.90808627531578
C        -0.27382029508159    3.19965364728785    6.97537556400670
H        -0.78031790976804    2.39396720380611    7.48762404307996
C        -0.46303582948582    4.50760809351574    7.38682079813171
H        -1.11291483556930    4.72493835449789    8.22144761789149
C         0.17608984602720    5.53549730055959    6.71888313971253
H         0.01899845574919    6.55824985588716    7.03085043304083
C         1.02306373747841    5.28115370575731    5.64984964007543
C         0.78035546303340    1.49678934557000    5.45470369703138
H         1.79497012959596    1.18246510496054    5.70047267600923
H         0.66011453473568    1.42765663291672    4.37421575727619
H         0.08092646426727    0.81941206298296    5.93791209699791
C         1.66869870459330    6.42293664971156    4.91577251110764
H         2.65050883934761    6.64793626414479    5.33665201629326
H         1.05451079481078    7.31705519673234    4.99999936662166
H         1.79418369653085    6.17918090716611    3.86289791221086
C         3.92065209019118    3.30502261909905    2.78174862886524
H         3.18496077374248    3.08779784011253    2.00591157344292
C         4.88064628930007    4.41183630565478    2.44833316049669
C         6.13196589581589    4.00130302842905    2.74166214312648
C         6.09829604040124    2.59504063902610    3.15451048510585
C         4.82573668210973    2.15119651248311    3.12183349886230
C         4.40757483437519    5.73300917889763    1.94392539982216
H         4.12550978583704    6.39038049462560    2.76825217830194
H         3.53433310308796    5.60074846153917    1.30800464522000
H         5.18565515176911    6.22845433331024    1.36791376361009
C         7.40833071348366    4.76155979734032    2.60703011997974
H         7.22417047806911    5.78457858725348    2.29154413433728
H         8.05842165777212    4.28030317393843    1.87655832806978
H         7.93757068117583    4.78347535666575    3.55882388456174
C         7.33430458017916    1.81589657554900    3.45090110153441
H         7.08858981878129    0.81520825415903    3.79468552403436
H         7.92615529109382    2.31552867626137    4.21633749283755
H         7.95021864157837    1.73147384452808    2.55547750237962
C         4.28511130136735    0.78676424853270    3.37265592116491
H         4.87241019341920    0.25772266632122    4.11933743509591
H         4.30254105419110    0.20050153707447    2.45192583786572
H         3.25367945776171    0.84886588902510    3.71127661077551
C         6.06562088929405    3.36090958326879    7.03672804103468
H         7.11583240821328    3.29268998567545    6.79855962274007
C         5.22071696771978    2.28131595555619    7.31946298450567
C         4.05826803193917    2.78000586792595    7.93823706290460
C         4.17558383300449    4.16778580199634    8.07821207375704
C         5.41627091370299    4.57600049422455    7.51415673219257
C         5.55521847532423    0.83646589242719    7.10392082650227
H         5.74017246338440    0.34543062118573    8.06115183839117
H         6.45187729830483    0.74195155579667    6.49432973021943
H         4.74186208624847    0.30216220074176    6.61209725244138
C         2.94210053680877    1.94865427777868    8.49084927762982
H         2.89565572949449    0.98018833758389    7.99733765696678
H         1.98332415681859    2.44918310873269    8.36819980695301
H         3.09464809727014    1.77306799795771    9.55787922209036
C         3.21986661277648    5.05703116665329    8.81307061401442
H         2.18808848835198    4.76911086888566    8.61763172667504
H         3.34660421396830    6.09732522182233    8.51913813378756
H         3.38986075310801    4.98716850742217    9.88957760765061
C         6.16336545750407    5.83287910227855    7.86037363837054
H         6.54210251670116    5.76162539198928    8.88287223875928
H         5.52706274606873    6.71492394812166    7.80475988503351
H         7.01371549942655    5.97789033453557    7.19573386452329

