51
CSD_code = DOPXOX | q = 0 | S = 0 | Stoichiometry = C23H23MoO3P | MND = 9
Mo        3.04782699235579    3.90632781952544    2.67330710996756
P         2.61428116046899    6.03391170301741    3.64826020813726
O         1.99195791343379    5.26391102009457    0.13011678077683
O         0.39036547851710    3.21897829407455    4.06918051817940
O         2.07756916917570    1.21705823409499    2.12967805692141
C         2.31983745760230    4.77629382408426    1.12151267209111
C         1.37918731125195    3.49879501120806    3.53290883914790
C         1.71767448249074    2.33605166555463    1.87029087784278
C         0.53623714785260    2.56126596315063    0.95140434122453
H        -0.08371094536398    3.39126304628008    1.28315077723902
H        -0.06074012355344    1.65028989563514    0.89881794222463
H         0.90975150941815    2.78660550048403   -0.04723993095198
C         5.25934611122203    3.75971674918816    1.88400380623281
H         5.67690472849228    4.16144076870273    0.96885282779878
C         4.75813980258652    2.45343589321788    2.05387105506593
H         4.74246977635256    1.67645668742507    1.29945607354752
C         4.49238606751668    2.26150337832790    3.43528436862479
H         4.22079522811539    1.31931390297105    3.89175203656518
C         4.80476360760309    3.45061620635611    4.10826774057596
H         4.85301251759784    3.58541182649742    5.18161810545065
C         5.28113885899580    4.38219404317357    3.14325462752451
H         5.74440495741277    5.33664257006375    3.37085464111047
C         0.87557884401452    6.58841639774019    3.89185942222182
H         0.36820709574040    5.83996211892728    4.50591412058250
H         0.89356889137917    7.53464239076150    4.44316097120696
C         0.15164868221535    6.75556663091549    2.56359354496889
H         0.69690462854484    7.43528329274702    1.90939712084898
H        -0.84703634818546    7.15655495098563    2.72545223844067
H         0.05952676732745    5.79311194637876    2.06157582327166
C         3.23781867693426    6.09396411548884    5.35603621963337
C         2.59216141741990    5.30898754552687    6.30888397046597
H         1.71736783904380    4.73866932062270    6.02721884170277
C         3.07596999898511    5.24101002689960    7.60153644084283
H         2.56619815915015    4.63477700526996    8.33579046339700
C         4.22035038489889    5.94071009884728    7.95262799426730
H         4.60166117811361    5.88306452475868    8.96127595048905
C         4.88039546349935    6.70351727523538    7.00444643991591
H         5.77989071261085    7.23917738126001    7.27125947301507
C         4.39551512074605    6.77919711594679    5.71010487776209
H         4.91874573021347    7.37454597018928    4.97379555831675
C         3.34403365113121    7.53265374258656    2.91129227482251
C         4.05365138398690    7.43831201539921    1.72141618238818
H         4.17231791119692    6.47024666724433    1.25277356607504
C         4.59933923904796    8.56944849648982    1.13880496626167
H         5.14616110793732    8.48669860266855    0.21119829058163
C         4.44281640321859    9.80429579418013    1.74442803813085
H         4.86649966288835   10.68787101292959    1.29074696626172
C         3.74468024619177    9.90570646483908    2.93808354307938
H         3.62789830665963   10.86750451130794    3.41585594078466
C         3.19810947753713    8.77823601680646    3.52064690838061
H         2.66962015829317    8.86158456399555    4.46072037652895

