107
CSD_code = DOPXIQ | q = 0 | S = 0 | Stoichiometry = C42H58N4NiO2 | MND = 6
Ni        0.00004697647604    0.00004086116806   -0.00010627617193
O        -0.71892687215473    0.36267847919126   -1.68922949784586
N        -2.17368064352214   -0.58079056891307    0.66438246981481
C        -2.89435419105418   -1.58047267338778    0.17943399939873
C        -4.26260874600859   -1.50377622195934   -0.02211342489287
C        -4.91311432460021   -0.32698732186926    0.31019256252230
C        -4.17238318100266    0.70826667250256    0.85102638028909
C        -2.80283200232548    0.54323436988631    1.00758894594562
C        -1.92889826938292    1.60575470430392    1.62115693925284
N        -0.76550764728105    1.85279695100436    0.77255640030110
C        -1.07001884189241    2.78996826198475   -0.31196497121321
C        -2.09830574038055    2.24166813227692   -1.26083728651348
C        -3.28817437264323    2.90957978011070   -1.46215549435093
C        -4.22752806337395    2.46082565438173   -2.37907201435615
C        -3.87360915623829    1.35934976424290   -3.15025528742280
C        -2.69159090755621    0.66031710397679   -2.99160414490976
C        -1.79098083921935    1.04694184310780   -1.95700034159683
C        -5.54653421362634    3.20140521646362   -2.54110345122178
C        -6.26004045943139    3.27828607690635   -1.18365223448790
C        -6.49434210513667    2.51466369977878   -3.52841447288486
C        -5.26479209322205    4.62088537034050   -3.05388580904381
C        -2.31442820842905   -0.47787851349470   -3.93419122957705
C        -2.27238714649523   -1.79126406086308   -3.14529981952738
C        -3.29014451938416   -0.65433606500843   -5.10232565364728
C        -0.92913781861914   -0.18314324255475   -4.52738087959038
H        -2.35810677491598   -2.49287072472629   -0.04716969874256
H        -4.80420024275752   -2.34470710382332   -0.42639746523527
H        -5.97781811218909   -0.22341813012352    0.16095560996864
H        -4.64369887627370    1.63529048726084    1.13763247950752
H        -2.50813578598328    2.52605105916219    1.78720089729043
H        -1.57166981355142    1.22520257102846    2.58309249947533
H        -0.02347319935056    2.24928431423050    1.34698341758748
H        -0.13800986494567    2.96591772515237   -0.86128394197003
H        -1.42830025388371    3.74903470913728    0.09699984892934
H        -3.47239353522269    3.80894162660988   -0.88924279423572
H        -4.55573146569081    1.03116625364122   -3.91332164220658
H        -5.65863122559572    3.80882379517294   -0.45068781511761
H        -6.45543598992586    2.27620667358500   -0.80803227920170
H        -7.20942865733040    3.80129856816812   -1.28478252884598
H        -7.43740868917805    3.05740567319137   -3.56612850156831
H        -6.70354544836338    1.49286780382117   -3.21947582663350
H        -6.07515922073923    2.50386324489952   -4.53153205393960
H        -4.64135728615198    5.17265771595517   -2.35543940128332
H        -6.19609638558358    5.16803610745543   -3.18934613401003
H        -4.74605911230073    4.57696471989450   -4.00912070872528
H        -1.63156323285322   -1.66337418188983   -2.27984946230259
H        -3.27070667022960   -2.05537963453323   -2.80168878201425
H        -1.88944880493451   -2.60104100103939   -3.76505080501451
H        -4.27978128691102   -0.94398740454714   -4.75569610661411
H        -3.36992965021466    0.25856713494553   -5.68802028349651
H        -2.92273484157307   -1.44357870231410   -5.75651096521836
H        -0.20604288562121   -0.04236585178686   -3.72966388980484
H        -0.60401019415586   -1.00400583551780   -5.16515433433025
H        -0.96496647784175    0.72632555025137   -5.12390511481909
O         0.71898706802173   -0.36264966360410    1.68902777635642
N         2.17382538464131    0.58109922013504   -0.66436001276049
C         2.89439506363801    1.58075831078202   -0.17920876032596
C         4.26261996970618    1.50408526353170    0.02254841275468
C         4.91321383891440    0.32734410145070   -0.30975708193425
C         4.17259746837778   -0.70788531812890   -0.85079450593849
C         2.80306593822517   -0.54287898838252   -1.00755854839468
C         1.92925480268289   -1.60537835921240   -1.62133613780449
N         0.76577376807634   -1.85255589025812   -0.77289581530726
C         1.07019639370202   -2.78983189892973    0.31155853963844
C         2.09839272419036   -2.24161217113867    1.26057611087722
C         3.28824386842507   -2.90954399972612    1.46193431449673
C         4.22751605815458   -2.46088377866803    2.37897889597767
C         3.87352255719844   -1.35949242253024    3.15024900377443
C         2.69151659415316   -0.66044710204687    2.99156520570757
C         1.79100504064853   -1.04695458325298    1.95683014428546
C         5.54650867063706   -3.20147875648796    2.54104803970939
C         6.26014136130100   -3.27820134716046    1.18365406525090
C         6.49422183936642   -2.51484915092249    3.52852753593979
C         5.26472289995646   -4.62101906185917    3.05364003542549
C         2.31424105894970    0.47761518714463    3.93426787280080
C         2.27217693464408    1.79110173574757    3.14554817917847
C         3.28987292633805    0.65397381195343    5.10248710129561
C         0.92892576436329    0.18272714133757    4.52732478174519
H         2.35809060034369    2.49312753298519    0.04737481247236
H         4.80412232534681    2.34499698980896    0.42699016026259
H         5.97789380776355    0.22378886199475   -0.16034604090535
H         4.64398316450523   -1.63487415760623   -1.13739633426304
H         2.50855147454541   -2.52563348381196   -1.78739794537715
H         1.57212466339365   -1.22475017392176   -2.58327793359273
H         0.02382029911223   -2.24900156424737   -1.34745698236567
H         0.13814005462884   -2.96585207260101    0.86077596520203
H         1.42852777791184   -3.74885278351822   -0.09746883465075
H         3.47251307339249   -3.80884869559930    0.88894777754427
H         4.55557264770819   -1.03139096846488    3.91341526182867
H         5.65879553873823   -3.80864405512015    0.45056850534756
H         6.45558340594232   -2.27607826826468    0.80817435546604
H         7.20951466729591   -3.80123581704460    1.28480980822328
H         7.43728629733105   -3.05759292016863    3.56626712284801
H         6.70345133661121   -1.49301695179286    3.21972700933486
H         6.07494438279262   -2.50416580943917    4.53160697164832
H         4.64135429244477   -5.17271222502111    2.35507217314675
H         6.19601599182725   -5.16818324360670    3.18912277347144
H         4.74590142753684   -4.57721095556761    4.00883210207151
H         1.63137078907495    1.66329767320521    2.28007312815652
H         3.27049454630004    2.05529518418069    2.80199209440666
H         1.88919693319723    2.60078349252662    3.76539747561724
H         4.27952096855884    0.94370289406721    4.75595435234524
H         3.36965467810363   -0.25899396198985    5.68808104754721
H         2.92239032033531    1.44312605237710    5.75674068737543
H         0.20589043410399    0.04202376886760    3.72954011140953
H         0.60371283598049    1.00348451383922    5.16519020900364
H         0.96476064163712   -0.72682257267473    5.12372538797643

