108
CSD_code = DOPYIQ | q = 0 | S = 0 | Stoichiometry = C48H52ClCuNP3Si2 | MND = 4
Cu        0.17339353278290    3.63389920769188    4.84451894385844
Cl       -0.77788431937216    2.37282996159588    6.56202946474049
P         1.49055896879160    5.27347301483722    5.73477803453112
P        -1.54548855878095    4.28147531847102    3.49575373831444
P         1.46735956817302    1.95647414793723    3.89431803650335
Si       -0.72131029885350    6.50385088195429    7.57078933807584
Si       -3.22662942879205    5.44683223340928    5.85646902310835
N        -1.86103414977633    5.37205940087898    6.92585375057897
C         0.69257834798306    6.82398867385734    6.29030670823027
C        -2.58540209631113    5.68917336802591    4.05086636395093
C        -0.02718374343902    5.81987719166033    9.20266438664357
C        -1.51569044158532    8.20821599730439    7.86362772379070
C        -4.21405922343710    3.83569306058090    6.03104157842386
C        -4.33416740356815    6.94789180877849    6.22912933265215
C         2.51090333229685    4.84636206510624    7.18348402906584
C         2.21065957092627    3.69435926973118    7.89845962293489
C         2.96977120650241    3.34518348659350    9.00142042646194
C         4.03128266669418    4.14223378794217    9.39272240155984
C         4.33369118290811    5.29332720044278    8.68151696052629
C         3.57864671078725    5.64640340834470    7.57962157558375
C         2.81406202780583    5.83098109473550    4.60817286797147
C         2.76196375319177    7.00160036118164    3.86108163223179
C         3.75349682917830    7.28373343423262    2.93734042822196
C         4.80075469065868    6.39990129929437    2.74386562727949
C         4.85681522299876    5.22621135804465    3.47983137151048
C         3.86813364646029    4.94151284507761    4.39910853682527
C        -2.81523405613751    3.05580934552789    3.04641349305322
C        -2.77237855328917    1.81507776159212    3.67123668820558
C        -3.72404093067631    0.85396302134136    3.38032105187501
C        -4.72081833082252    1.12571486066651    2.45941692624462
C        -4.76937283395391    2.36210358436328    1.83316869844250
C        -3.82328017682744    3.32637040011531    2.12490146322270
C        -0.95399980608285    4.87701639973491    1.87383656044174
C        -0.19392821947455    6.04544978479217    1.86740487995811
C         0.38472205357772    6.50809011122453    0.70278619601349
C         0.23070084799971    5.79390921819819   -0.47508016146486
C        -0.49387679122164    4.61443218901714   -0.47360232073601
C        -1.07878713374719    4.15368918563428    0.69245992613043
C         2.77896101915181    1.29725601056657    4.96691836076940
C         2.38100304809265    0.82965354128221    6.21939338760410
C         3.32360588673858    0.38210054246107    7.12528695155932
C         4.67024625094232    0.42170032468787    6.80228262284360
C         5.07129221901322    0.91343887768200    5.57114870421086
C         4.13334625809789    1.35248506345166    4.65369987516716
C         2.34241021104796    2.33337520800872    2.33587184445293
C         2.35037240757531    3.64834879016405    1.89162071274085
C         2.99076966139223    3.98547580478135    0.71293189823832
C         3.62007454020508    3.00416665176768   -0.03263314780931
C         3.60411917219277    1.68587603662798    0.39864627573285
C         2.96716864794477    1.34743629237726    1.57704262921501
C         0.56490415524676    0.47055200392799    3.34636520918787
C        -0.24677137554893    0.64521353425317    2.22572246363905
C        -1.03288096787629   -0.38961597555702    1.76234308180893
C        -1.02668633775768   -1.60913984635431    2.42182785293481
C        -0.22885831715327   -1.78510499767632    3.53925919875289
C         0.56486466020725   -0.75119382830099    4.00628838315775
H        -1.52522187002508    4.40934889047870    7.00478717990597
H         1.45613939686745    7.50068382965703    6.67968402262974
H         0.24435228775587    7.28109399929161    5.40538754812077
H        -1.95541809013492    6.57986990320772    4.02696467553357
H        -3.39864734518623    5.83209811502225    3.33715045130307
H        -0.68901553752794    6.05433233525556   10.02999934965108
H         0.06843401227361    4.74080651358810    9.15412502981919
H         0.95284220977494    6.22630876383588    9.43446894850192
H        -0.84016849007516    8.86164924621808    8.40636916509358
H        -1.78059268067081    8.70557036030205    6.93735748416101
H        -2.41845869890995    8.10764772775423    8.45304817632270
H        -4.83319253541291    3.85469784904527    6.92214120645344
H        -4.86112583357856    3.65358125633436    5.17793490086958
H        -3.53878617111113    2.99138102547069    6.12018181599501
H        -4.56989541136171    6.98823560694459    7.28546042636275
H        -3.86510580968881    7.88662224146267    5.95950242119146
H        -5.27105585039709    6.87948096672434    5.68607080575470
H         1.37501586218413    3.08321517587401    7.58898281379231
H         2.73076384173981    2.45059046777271    9.55685955015212
H         4.62625925880019    3.86998405187852   10.25254294291956
H         5.16243382792659    5.91600445710605    8.98782476777505
H         3.82194015072730    6.53956392737533    7.01902164853511
H         1.95262339640944    7.70345892729011    4.00371362811012
H         3.70860127145336    8.20046633951708    2.36616837835178
H         5.57144982835537    6.62311498505629    2.02080470921998
H         5.67090312469472    4.53189003857449    3.32995024929002
H         3.89891656951984    4.02272106013159    4.97173266833339
H        -1.99754876953595    1.61371888973038    4.39749435818883
H        -3.68458071974823   -0.10638345268371    3.87248682416127
H        -5.46453317041516    0.37689578465514    2.22796748252974
H        -5.54937719280293    2.57369614867701    1.11524898713445
H        -3.86176150767681    4.28785459841430    1.62977067386344
H        -0.04943898538426    6.58463876778055    2.79499298555049
H         0.96457992236306    7.42007762512525    0.71292236947479
H         0.68216640109453    6.15088200298761   -1.38908513318431
H        -0.60271250971097    4.04730082367062   -1.38692548600665
H        -1.64259700328382    3.23119565882288    0.68256732386749
H         1.33107886521116    0.84341030131385    6.48040404873634
H         3.00858668458572    0.00930932575010    8.08885419577740
H         5.40847760480769    0.07869390673699    7.51243035918019
H         6.12248268060417    0.95725576161118    5.32338982679452
H         4.45375742747867    1.73990297001281    3.69634784467971
H         1.84530846368060    4.40499933065524    2.47741694175265
H         2.99476528044058    5.01250525423294    0.37989446117889
H         4.12124738940311    3.26229814465559   -0.95414906359065
H         4.09133936276960    0.92038598804893   -0.18822272462320
H         2.94972837002492    0.32004092765337    1.91508529702125
H        -0.24862849524343    1.60611509701237    1.72540261657720
H        -1.65879345333552   -0.24586079551164    0.89323425831847
H        -1.64603401408048   -2.41933352059781    2.06569910859147
H        -0.22467663453240   -2.73463465941016    4.05506337424704
H         1.18370448580858   -0.89947671457260    4.87902249644175

