46
CSD_code = DOPYUC | q = 0 | S = 0 | Stoichiometry = C21H18N2O4Pd | MND = 4
Pd       18.52068226930265   -1.78803734058907    1.56498177929372
N        17.59390886949610    0.50664114467283    0.76532577494195
N        18.77744415043529    0.00901767924896    1.04970306880167
C        19.86690634393491    0.77827375355371    0.99721744251743
C        19.74640803553380    2.15786973267676    0.72616553749953
C        18.50589903160990    2.68068626198364    0.47079692331515
C        17.42052600760069    1.77525353985766    0.47960514485998
O        21.09426758519478    0.30131378000152    1.17655827597790
C        21.40741380191398   -1.06487134161888    1.14020018353738
C        20.47506330711630   -2.10542322976724    1.18133308855551
C        20.99521996002894   -3.40033584599509    1.08328779736198
C        22.35313780621097   -3.64431826774958    0.96338449453822
C        23.25007820725141   -2.58892047078199    0.94504618516455
C        22.77669148884669   -1.29568081439434    1.02991186183821
O        16.19834944954430    2.24813786955858    0.21954167790764
C        15.08031413498472    1.42127212740071    0.23084572639122
C        15.06126822750009    0.12023583698765   -0.25278779802450
C        13.87255874746227   -0.58892336030991   -0.23348592776065
C        12.71063555856069   -0.01320876554367    0.25018854200716
C        12.73290117977799    1.29093525350375    0.71522129226149
C        13.91383268242249    2.00907182306276    0.70664689350367
O        16.50474836059889   -1.40149622086527    2.31673917319218
O        18.14894402769420   -3.74351204780849    1.99355052558246
C        14.30542232669150   -1.75974273861215    3.12483249514549
C        15.66819349780701   -2.25994033381575    2.68296462212199
C        15.88132146826507   -3.64481906134090    2.73284884653239
C        17.07656535315105   -4.27896196866853    2.39921918662372
C        17.10781533378182   -5.78979283060527    2.54578151474265
H        20.63902454545604    2.76195306475028    0.72618239516817
H        18.34370713423539    3.72490702844510    0.26422162804010
H        20.30939822659407   -4.23769237005771    1.10960883187247
H        22.71384991968692   -4.66001234788782    0.89043965947347
H        24.31103343550505   -2.76978563121974    0.85970825804144
H        23.44527221187442   -0.44855618259884    1.00860156430295
H        15.95758168486041   -0.34441027910078   -0.63112607931665
H        13.86074779739877   -1.60360076231524   -0.60215720550833
H        11.78997018929046   -0.57690193908808    0.26366636458515
H        11.83105396177063    1.74983595165852    1.09206220696242
H        13.95084750125543    3.02517310648797    1.06803527771446
H        14.25035734062796   -0.68281046738588    2.98875663892336
H        14.14392395224228   -2.00224412967388    4.17329871716465
H        13.52315674024034   -2.23649528160833    2.53909733778237
H        15.06551807964255   -4.26563456906701    3.07054055255502
H        16.34533921251357   -6.24208243143320    1.91563283426798
H        16.90791209869615   -6.06856668658136    3.57799715312977
H        18.08528875538790   -6.16610023736734    2.25560953641410

