115
CSD_code = DOQBAP | q = 0 | S = 0 | Stoichiometry = C50H60FeN2P2 | MND = 4
Fe        5.56921661205483   10.45053562588459    5.26802038521444
P         6.32640892921486   11.81910228715105    6.88112080809856
N         4.62406003498974   11.83902973546336    4.61465296284004
H         4.67594894678345   12.74801595084080    5.06525035195902
C         3.71520872249532   11.91203745812215    3.58145341583150
C         2.93219131168247   13.08037912268241    3.38720434318510
C         1.95361122134786   13.08174049997650    2.40842430529391
H         1.33620813513096   13.95565996260888    2.27351210494774
C         1.73852450551653   11.98520692798703    1.59453445616822
H         0.96190622348235   12.00808723879427    0.84473840215200
C         2.53598781109807   10.86730291477798    1.74312846020476
H         2.38154172646405   10.01805205889954    1.09534247694461
C         3.52461265987475   10.81702925231636    2.70994013307592
C         3.10512801676936   14.30143404890112    4.27014368470976
H         4.15603626824320   14.38554183557860    4.57407666954020
C         2.24309077616268   14.14690226784416    5.52814691760836
H         1.19663714514954   14.04178533320962    5.24810143086130
H         2.34711594713563   15.01987858652490    6.16906214447710
H         2.53650851523162   13.26587061145495    6.09525563692677
C         2.77043050902831   15.61775197511532    3.56688179327951
H         3.25972838645129   15.66947342987087    2.59703017535597
H         3.12143146669739   16.44953297549774    4.17522333993662
H         1.69893616362112   15.73661305738232    3.42760002722279
C         4.38234164390163    9.57930390443299    2.82536303368643
H         5.26324755724408    9.81971605931018    3.45384869546793
C         4.93334138747115    9.12821133237373    1.47217878013827
H         4.15008454810037    8.70953803684485    0.84455070654318
H         5.69693277146710    8.36835791094870    1.62105658903532
H         5.38942772260285    9.96472336456953    0.94796426460521
C         3.60056301165010    8.44397977648528    3.49096358927936
H         2.75611254827553    8.15125491268597    2.86928648274164
H         3.21921555254280    8.76482436916043    4.46012167163368
H         4.24401386511974    7.57900647635573    3.63565694620513
C         5.98202568169460   13.61683058450827    6.92625338713466
C         4.98674332896609   14.22919568502921    7.67906495693404
H         4.36777172904541   13.64849665578617    8.34668393668520
C         4.78344413687634   15.59611204848738    7.58359300889808
H         4.01587488678155   16.06482676179137    8.18307439183567
C         5.55495707966669   16.36217789078117    6.72733971037259
H         5.38814347361921   17.42669837358133    6.65375219963154
C         6.54246719604318   15.75821233350953    5.96307901235237
H         7.14475551438444   16.35175477817605    5.29072665254425
C         6.75142587686948   14.39729886177870    6.06202238586036
H         7.51916976358815   13.91354762931598    5.47240902963691
C         8.04968710988724   11.86821178178863    7.50622636319272
C         8.43660484309893   12.79892258017907    8.46750374281577
H         7.72749930558353   13.53168311397908    8.82931926980759
C         9.73060011527417   12.79546451710281    8.95303280887791
H        10.02733692583866   13.52184482241029    9.69627383085921
C        10.64698088875225   11.86463986852439    8.48890800993158
H        11.65762006116315   11.86723099307194    8.87082049954487
C        10.26505385499165   10.93679642452364    7.53502303601126
H        10.97885994622235   10.21219017262436    7.16993156578003
C         8.97105506442974   10.93750641180820    7.04287870868227
H         8.65031663189054   10.22824952927412    6.28930667208319
C         5.51150416671679   11.21813057419755    8.44541290411810
H         5.95905647840650   11.68296353899114    9.32915891028510
H         4.44513567184004   11.46319670406310    8.40527303486578
P         4.92776512814306    9.08223506441770    6.86107471033875
C         5.11221085564087    7.27270061050859    7.09225619092468
C         6.23186464337851    6.70549215221111    7.69458282922780
H         7.00407980310043    7.33581204174673    8.11111030503644
C         6.36723111925803    5.33028126088771    7.76686570008832
H         7.23478397790174    4.90299921672003    8.24905828693683
C         5.40042675213261    4.50303241347595    7.22105562479937
H         5.51111065265032    3.43003569361884    7.27568541796096
C         4.29394032860202    5.05783480960477    6.59762526795127
H         3.54000331021090    4.41790756638499    6.16246828605289
C         4.15319361869877    6.43032719247454    6.53007038752629
H         3.28733086460969    6.86134845911507    6.04583092068379
C         3.16471555891236    9.27004996763363    7.33468000860429
C         2.60222082471903    8.54040866743548    8.37811170241002
H         3.19340299990590    7.79805389991624    8.89726788317762
C         1.28558959973603    8.75294667413213    8.74191528148244
H         0.85349388193092    8.18206060011786    9.55118081472223
C         0.51928726353701    9.69449046274988    8.07237973732512
H        -0.50918120769618    9.85565251507683    8.36012402655501
C         1.07323904264666   10.42467798020403    7.03441575609940
H         0.48034396112529   11.15764747693787    6.50712654134052
C         2.39078537780137   10.21265919913888    6.66903442196752
H         2.83437162755815   10.77588333641375    5.85921855738160
C         5.67891795327508    9.70625953186204    8.44844872536433
H         5.20423537558145    9.23668896467880    9.31577012292699
H         6.74652021862200    9.46573882704794    8.44580802155929
N         7.24518542140719    9.28640325475490    5.11359323529347
H         7.23143400793068    8.41341207403734    5.62962555559109
C         7.67392276011939    9.05086834634353    3.83734565017315
C         7.76303517208942    7.73141112109234    3.30879608469400
C         8.33753400446822    7.52159115286782    2.06886596759299
H         8.43246785404373    6.51570714449146    1.68724944928553
C         8.78469679573909    8.57517323438190    1.29292863874375
H         9.22365180586930    8.39207532850349    0.32314791320321
C         8.66014365558616    9.86426647801655    1.77692913161053
H         9.01107762524241   10.68629015671714    1.16935736923390
C         8.12103166636505   10.12362096722326    3.02284171699213
C         7.26223943974614    6.54806917630450    4.11092647883787
H         6.47989011911621    6.89713282427323    4.79760767846761
C         8.40755640815710    5.95120401131968    4.93530132874313
H         9.19742380591246    5.60270419850683    4.27280949306349
H         8.05332179137810    5.11136590719371    5.53061814509495
H         8.83260181221386    6.69697797135268    5.60450166355034
C         6.61891917571459    5.45877925534797    3.25042699382855
H         5.90498556134669    5.88947299741114    2.55125653941087
H         6.09160915424718    4.75404468182701    3.89219020586328
H         7.36424070091354    4.90405551210717    2.68617625348720
C         8.07948951846236   11.55334529147298    3.51353618789432
H         7.59051258437566   11.56068815940449    4.49719957089161
C         7.26188780266617   12.44717030325862    2.57958014974502
H         7.70319374627091   12.48548774687187    1.58640545547658
H         7.21564352765983   13.46297298183782    2.96931157563448
H         6.24541410136914   12.06972171203461    2.48926637597960
C         9.49765005468006   12.10250325090805    3.68529342282565
H        10.01957353684284   12.13428740528639    2.73156799594451
H        10.06574343778928   11.47333359459942    4.36621672787383
H         9.47229904565314   13.11207724038022    4.09355830260264

