54
CSD_code = DOQBOA | q = 1 | S = 0 | Stoichiometry = C14H33ClMoN5(1+) | MND = 6
Mo        3.26653179599988    3.67461136781100    4.08218470586383
Cl        1.58097468977823    3.91741841173743    5.64459496194143
N         2.94310524257255    2.05969242951506    3.52469716895525
N         4.66168500299119    3.67017304930862    5.12358046744636
N         3.29735412568848    5.99991995015396    4.07502060715977
N         1.70971340558458    4.47124995026888    2.50380287667528
N         4.41152926910560    4.29674395727548    2.25936505130149
C         2.76153799269790    0.69373921778542    3.27932742500055
C         2.15431518324624    0.09195529279094    4.56182207732963
C         4.12196092350708    0.03197467686589    2.99159434736354
C         1.80154888449178    0.45378430247220    2.09758043545269
C         5.76978781897704    3.33071256356868    5.91077606014490
C         6.21954190914728    4.51063159084177    6.79310725596132
C         5.36961269934653    2.14246741954985    6.80365718232895
C         6.91860901287933    2.90875937772829    4.97309177302506
C         2.20651112520337    6.70155995203958    3.38712502493782
C         1.10247811044662    5.70427185208228    3.00459473737292
C         2.23930071059877    4.56714272351520    1.14015624609198
C         3.63478159218400    3.92927459205470    1.07007057476221
C         4.89336479879135    5.69049304337279    2.24681686795743
C         4.63309080889644    6.35524539841048    3.60588837818592
H         3.23636356352215    6.17537219106513    5.07721950535056
H         1.02280087938669    3.72189638890140    2.55561447248630
H         5.21453771556968    3.66778277125107    2.32051936523897
H         2.81552046460904    0.29171618770519    5.40237316766732
H         1.19027390078224    0.55511216161345    4.76432495753377
H         2.01961327304673   -0.97964592975069    4.45059933275927
H         4.80073201100082    0.22996185663120    3.81766424204683
H         4.00329515927714   -1.04106425644304    2.87740369296824
H         4.55483846309721    0.43617707234846    2.07727470014326
H         1.62738620651754   -0.61023439157638    1.96971701299719
H         0.84603306215750    0.93876194674002    2.28780551645693
H         2.22024317847064    0.84578740942245    1.17169985510961
H         7.01492543083773    4.19560409834813    7.46162055985207
H         6.59033473717046    5.33466579040304    6.18535425579923
H         5.38126929085743    4.86213300314401    7.39101632744679
H         4.53155592408421    2.43021480690832    7.43518779369013
H         5.05943774406861    1.31083196868402    6.17558485785294
H         6.20112715403616    1.83468772393801    7.43035794985771
H         7.76006750854779    2.54555253335589    5.55488848874059
H         6.57191390946175    2.11560807911050    4.31182071413453
H         7.25038929956377    3.75571927722638    4.37319850303980
H         1.77117349924291    7.48661057396082    4.01354979137247
H         2.60188398324948    7.18674674552531    2.48994969066631
H         0.42897536581249    6.16279767694495    2.26784529339291
H         0.52209947357976    5.45284255583842    3.89793536872460
H         1.58853144631897    4.06946936387379    0.41325227235562
H         2.29516397537569    5.62062041215057    0.85100568228710
H         4.14219290086761    4.23632615324617    0.14497402556666
H         3.53195162748979    2.84014163349452    1.07430553227215
H         5.96440844273905    5.73788521849207    2.02278594500760
H         4.37123887341108    6.23914338517549    1.45797094796662
H         4.76976893026251    7.44235831898311    3.51518375004212
H         5.35121750344665    5.97169615412874    4.33494220389791

