96
CSD_code = DOQBOD | q = 0 | S = 0 | Stoichiometry = C41H50NP3Ru | MND = 4
Ru        3.37645990322061    8.47200464600049   10.28552976131741
P         5.03879073984714    9.47647194829201    9.16961355914010
C         4.81470959183492   10.32784136054537    7.57395839118296
P         4.41568435769400    9.43711158345611   12.01715434426510
P         1.70437234668271    9.93531928027667    9.83287337464861
C         1.21373130255525    5.68835004422151    8.56511065195302
C         0.17037430362092    4.80893143154243    8.35817656238192
H        -0.03099664458864    4.44271084589738    7.36243225924932
C        -0.62513982409864    4.38020295023239    9.40829106272217
H        -1.43605672623708    3.69008069105578    9.22554188490936
C        -0.37287545613658    4.82936448141370   10.69311798075748
H        -0.99300840202168    4.47807023536863   11.50490096892664
C         0.65779263020918    5.71103925155311   10.95514929869532
C         0.97275379161836    6.16114360443907   12.36308370061338
H         1.62388347230724    7.04735781456526   12.29469878017259
C         1.74556887485044    5.05338341353856   13.08540717190305
H         2.06292889610600    5.38893557713991   14.07119259328949
H         2.62869401004637    4.77594525196407   12.51393291697733
H         1.12133854186076    4.16872182314691   13.19961590096142
C        -0.27064243612831    6.54774008688485   13.16250743208838
H        -0.88204080093057    7.25956764096169   12.61164918656120
H         0.02471526318750    7.00476966049140   14.10534677457680
H        -0.87974538216435    5.67570591690517   13.38975208778423
C         2.12353999929127    6.13617166437922    7.44447728857032
H         2.54836700173822    7.10958505693124    7.73620231558853
C         1.40699972564509    6.31085877176045    6.10754933524136
H         1.13025922773591    5.34949207216989    5.68033882612774
H         2.06433428914426    6.81387969440467    5.40037843968620
H         0.50630920931651    6.91053315385852    6.22481590585597
C         3.28210590118199    5.14225732940733    7.30902232666750
H         2.90635500488513    4.15364327052545    7.05055854030880
H         3.82498070844758    5.07061214193032    8.24966010211576
H         3.97711768389330    5.46588618792615    6.53574035860011
C         4.08973947455254   10.02579069024617    5.29389497007549
H         3.75781802967080    9.37797495781631    4.49494388031178
C         4.22322715917366   11.38847060917995    5.07224046005705
H         3.99560508959085   11.80402212942177    4.10154202813396
C         4.64813550107640   12.21572238040333    6.09736875758502
H         4.75218001436997   13.27778027058325    5.92479221852973
C         4.94081014164936   11.69239611584604    7.34599548069651
H         5.27284470050147   12.35320548553703    8.13415501386726
C         4.38054772229909    9.50229103649640    6.53720353053138
H         4.27716574168438    8.44089333745343    6.73167708247654
C         6.03643907033941   10.68734197303320   10.17597603359267
H         7.03013684975004   10.85103794026854    9.74707269263879
H         5.48082091736128   11.63148814800216   10.18746963258286
C         6.10244458895888   10.10920791882631   11.58080995640015
H         6.46305203076704   10.82568932190663   12.32517604806760
H         6.76923930580014    9.23517029750134   11.58812490499119
C         4.92241190403934    8.32643290681298   13.38025857905246
C         4.82556039387680    6.96092290910489   13.15015949821263
H         4.41971133491225    6.62841300817323   12.19305121404151
C         3.64160415547679   10.76175724877528   13.00387772992565
C         2.55667249509442   10.36271493328518   13.78401054094203
H         2.30725018295870    9.30817459702469   13.82218120948720
C         1.82155341168587   11.29101907933328   14.49324470545267
H         0.98709767186215   10.97288061231766   15.10217150785778
C         2.15425046808981   12.63570119787679   14.42105631107120
H         1.58157780438945   13.36554621065754   14.97430952323269
C         3.21955453814570   13.04214682811640   13.63552312502168
H         3.47588053577777   14.09074325596679   13.57559903101686
C         3.95885947470921   12.11250643047164   12.92382038566742
H         4.78443384376848   12.44454853289009   12.30960083524982
C         6.37363828083499    8.32108594660465    8.67615338108297
C         6.26388876268875    7.00266315871774    9.09694582560412
H         5.38617615993249    6.72279956423787    9.68805626630924
C         7.23518730132188    6.07687192920862    8.76434054520592
H         7.14616568074228    5.05111379807134    9.09271989246449
C         8.32310542352922    6.47064946208728    8.00248797165297
H         9.08525283924251    5.75212053490947    7.73763708492211
C         8.43426062709797    7.78414646972432    7.57190571599913
H         9.28135915625685    8.08419262957930    6.97142207263658
C         7.46320010083826    8.71026452399006    7.90407297118765
H         7.54008780218971    9.73284447631656    7.55722243644572
C         1.92936238845097   11.75931859918059    9.80797227594901
H         2.68293331451255   12.00621042859961    9.05944043306008
H         2.27672109320612   12.08813335596599   10.78748910802181
H         0.98985037266114   12.25502612670031    9.56372376934490
C         0.23213175304835    9.80164363919870   10.91719802020506
H        -0.55889001242398   10.47431918766527   10.58386637389837
H         0.52136222556948   10.04604176808620   11.93916093538126
H        -0.11648215268612    8.76920360862655   10.88234830871764
C         0.91342695913431    9.69906507329660    8.19387654033004
H         0.53567427217953    8.67773434631387    8.14276414581413
H         1.66168341468812    9.84068422943136    7.41325336012967
H         0.09441111590478   10.40558113661697    8.05443404722171
N         2.50694990203908    6.97810679311093   10.10622826106428
C         1.47823963760855    6.15253449222124    9.88288481210434
C         5.42046647771063    8.79004620125390   14.59296961972670
H         5.48872834346089    9.85446197732106   14.77523640629080
C         5.81393004611050    7.88602072238852   15.56212379407078
H         6.19816821803623    8.24328169241703   16.50705848184093
C         5.71566575163269    6.52296264236131   15.32712509239330
H         6.02240413157675    5.82262632618869   16.09059504258245
C         5.22165920373604    6.05798242400058   14.11938148939298
H         5.14239575227238    4.99528348865934   13.93991854824997

