69
CSD_code = DOQGAU | q = 0 | S = 0 | Stoichiometry = C34H25O4P5W | MND = 6
C         0.67675522486376   15.54339656703456    2.56397728025889
C         0.32760142552629   15.91330878665741    3.85926623818632
H         0.66776040522773   15.30786265001904    4.69066906784134
C        -0.44372863434882   17.04121413079211    4.06727100846601
H        -0.71306931326496   17.33243043517821    5.07168163493659
C        -0.87261799038843   17.79490901689874    2.98593756954407
H        -1.47520086133907   18.67589290626436    3.14941099225074
C        -0.53686592897139   17.41897481735775    1.69503625345726
H        -0.87625894601691   18.00496345129086    0.85382737234403
C         0.23569556972728   16.29356744126941    1.48032380682966
H         0.50310676745959   15.99286076965968    0.47340293442664
C         3.46753793605207   16.52496065789364    1.65737845392663
C         3.03569648500060   17.65179630214077    2.35447051288718
H         2.91974629241805   17.59548045987988    3.42906561114129
C         2.75208176452226   18.82577985952402    1.68415129149942
H         2.41045988828236   19.69001491152291    2.23436502396411
C         2.90779392779726   18.89127848973108    0.30933931371637
H         2.68608646359799   19.80744467354850   -0.21756415926904
C         3.35574031615483   17.78185056170866   -0.38801047538337
H         3.48639405759625   17.83267771472843   -1.45913813452376
C         3.63516223634441   16.60362108716248    0.27968718922853
H         3.99119684729227   15.74431357849934   -0.27558761812355
C         5.89990604819400   12.96449382964685    2.57957538896141
C         6.64015505521319   13.77079917282864    3.43923448718155
H         6.58941598562711   14.84806289506612    3.33145771338692
C         7.40778578989320   13.20132771339131    4.43612448399161
H         7.96514225459453   13.83277703391211    5.11203305726413
C         7.45267976616408   11.82320013364815    4.57509817202600
H         8.04039112301266   11.37918140832895    5.36442711080786
C         6.74336612032020   11.01532306511191    3.70278132102951
H         6.77863035125909    9.94098640395964    3.80503268109203
C         5.97468253730677   11.58143862925471    2.70200386984836
H         5.43259800660152   10.94210499212007    2.01243961096333
C         3.87483974216841   11.17544160887843   -0.22500887361015
C         4.42760126435402   11.70553144018761   -1.38566363742330
H         4.57781391044738   12.77553581243054   -1.46583331492563
C         4.77528238907465   10.86187102801857   -2.42324522858619
H         5.20410474104921   11.26830591632533   -3.32734420891440
C         4.57100035918919    9.49498432471009   -2.30538078442121
H         4.84244610418088    8.84019324302911   -3.11999880685892
C         4.01970530352687    8.96623637587936   -1.14917347553803
H         3.86099780215987    7.90185764633215   -1.06128962171808
C         3.66981444582279    9.80473112151193   -0.10644361835971
H         3.23293672024560    9.41298120650145    0.80521799856956
C         0.50538014923916   12.56617172066679    0.02485496847142
C        -0.69290665722764   12.79670070122595    0.69643404838114
H        -0.76943987313649   13.61153275723414    1.40743412742904
C        -1.78579825315648   11.98330066816873    0.46322039816839
H        -2.70729792996025   12.16081177843030    0.99771791971715
C        -1.69530355777882   10.93765172368295   -0.44040638434134
H        -2.54564113332681   10.29426658932130   -0.60842314865434
C        -0.51356255671930   10.71880185588769   -1.12929356629287
H        -0.44078573415401    9.90760066156385   -1.83867185360298
C         0.57831713640920   11.53719749652721   -0.91150252443438
H         1.49668052229109   11.37549029023942   -1.46094686233087
C         0.76474566724782   10.75166131122545    2.34969705298740
C         1.06889740324573   11.70734322536232    4.95080694620737
C         2.93676746153465   10.01108341046228    3.78906761466964
C         3.57079248260027   12.58354279347579    4.49348802412341
O         0.00841440917932    9.99289272307872    1.94487861327103
O         0.42106280545018   11.69617145509744    5.89698010228319
O         3.42557785337861    9.00429649432195    4.04408421061525
O         4.28271749375049   12.93454512636783    5.31778260631669
P         1.72631113645682   14.07381179040967    2.37852021538060
P         3.72749893100953   15.02261036428902    2.66820802367276
P         4.89553550539500   13.76326380257622    1.28059492194852
P         3.34324120000688   12.21787065668627    1.15881494326781
P         1.94371643970287   13.66966150692490    0.22809094237832
W         2.18050934465123   11.76495482682650    3.32286316797640

