79
CSD_code = DOQGIB | q = 0 | S = 0 | Stoichiometry = C34H32F6N4O2Zn | MND = 6
Zn        4.39346941068780    2.15244687785481    3.55068706484963
F         5.64383858666559    0.31205191977117   -0.47361465116437
F         5.46078969883412    2.15939032879127   -1.57513721173955
F         7.30233522198554    1.64742853060602   -0.60773840964248
F         2.27479156253096    0.94269060208524    8.02468620348734
F         4.40341371830750    1.09619251818376    8.02778169693596
F         3.19565650371664    2.78835072183382    8.60681203904441
O         5.33959227694676    3.88579901496378    3.25696593079073
O         2.51763574875679    2.82382761697864    3.53085338420634
N         3.53399606787196    0.22367261448563    3.37821002475131
N         4.53188356960374    1.87789854208477    1.54950441967879
N         6.31140756100887    1.39881808140091    4.09341227316394
C         3.08317280319970   -0.57933589311829    4.30972695477750
H         3.52775678772194   -0.47889567217358    5.29015249284883
C         2.07973791996978   -1.53020489207814    4.08126162333402
H         1.75331894717658   -2.16688593735826    4.88842957854310
C         1.51913227711800   -1.61168603979799    2.83428045307624
H         0.72354556471554   -2.31184584013362    2.62169728281366
C         1.97877752159280   -0.76071335700394    1.80868603803952
C         3.02339950866432    0.14305714088446    2.13512422709740
C         3.55084119347465    1.01787510020689    1.13749476306863
C         5.53130131055239    2.33327171400433    0.82907060481727
C         6.33805754336221    3.40036859022893    1.18555918936037
H         7.14212169555874    3.65982414106665    0.51873201269023
C         6.19526399287196    4.13185946045285    2.38583771641612
C         7.17153495949012    5.29075298784590    2.63348414814692
C         8.61518367777682    4.77554449015370    2.60861520734704
H         8.88387840415675    4.37440500719650    1.63565344272760
H         8.75000780363837    3.99303845960508    3.35215788940152
H         9.29681842652925    5.59145004566288    2.84027161814497
C         6.96873934471075    6.35321733573181    1.54708301560851
H         7.62712459822877    7.19952401965448    1.73146930500592
H         5.94063254711882    6.70662048189681    1.55494571841311
H         7.18792876254477    5.95696902307309    0.55958611721065
C         6.88412031125540    5.90232509852551    4.00611437288070
H         7.54506475682434    6.74678815134990    4.18674133771292
H         7.03474261969589    5.16373360238916    4.79009944389149
H         5.85350217386774    6.24159717397124    4.05906520947525
C         5.96474276455502    1.61535650243575   -0.45251764104458
C         2.95091407110948    1.02467152026963   -0.11115932054765
H         3.26865435667807    1.73425157116638   -0.85888880789666
C         1.91184622235931    0.14231597520606   -0.41611795226620
H         1.48084563772522    0.17409540984735   -1.40562898277959
C         1.44135089738387   -0.75322103895034    0.50729778547301
H         0.65145415884554   -1.44620201633921    0.26071925810258
N         4.32269839291599    2.37585616262133    5.55843990896130
C         5.58964502466634    2.55174184471557    6.04174516577374
C         5.92565392905532    3.30187318642930    7.15675181326162
H         5.15334386375170    3.77968739626560    7.73873389727337
C         7.26039636896349    3.48160970573279    7.52753569537997
H         7.47776262835639    4.06742362029402    8.40816422146668
C         8.28390762205419    2.93047334536184    6.80250608771281
H         9.31271633521298    3.05641570795846    7.10401183442120
C         7.99672545139338    2.20067058752938    5.63284728706653
C         6.64518667616716    2.02973729833853    5.23496022390177
C         7.25638652414356    0.88519351192592    3.34585080948135
H         6.93780811502351    0.38247646660790    2.44320625126255
C         8.61737526953429    0.96296347368145    3.67033055409301
H         9.34928436087660    0.51576692682261    3.01657375717600
C         8.98808070860824    1.63457496678276    4.80518850405717
H        10.02851317785051    1.74545091097904    5.07667301053306
C         3.22456953103191    2.23007142563459    6.26161741251914
C         1.93926904345236    2.36912827533505    5.76204236658181
H         1.12534845973417    2.19738005488447    6.44271662088927
C         1.64996021824415    2.69610187147009    4.42075296992377
C         0.19628540647217    2.92520199178119    3.97966789232596
C        -0.85361787516185    2.63792241942221    5.05052746403683
H        -1.84382470409850    2.80521424397876    4.63075496363198
H        -0.73824249869227    3.29871617928304    5.90584015982285
H        -0.80135284943562    1.60486187967386    5.38649095558509
C         0.10867599393138    4.39882435038048    3.55774395675196
H         0.85986834312718    4.61052277477489    2.80172478695513
H         0.28517880267985    5.04843612742324    4.41228230588675
H        -0.87641165185522    4.61665915579304    3.15117554130932
C        -0.06458781635062    2.03009198890036    2.76152856798307
H        -0.04965202875089    0.98099405580799    3.05151576268172
H         0.70284685172622    2.19031134713208    2.00873382858341
H        -1.03591920429058    2.25681311435530    2.32811064178629
C         3.28759804226960    1.77764394701233    7.72348791466827

