67
CSD_code = DOQGAT | q = 0 | S = 0 | Stoichiometry = C30H30N4O2Zn | MND = 6
Zn        2.72301226753100    2.91658700307819   15.41836057506455
O         0.70793740725735    2.82936452483664   15.41575152007969
O         3.24832603874153    2.97552104435203   13.47280449704985
N         2.68574216874619    0.90180079928009   15.43927375875758
N         4.85070278123839    2.44125981088979   15.69593188559258
N         2.71635489648396    4.93078172562463   15.35085580458989
N         2.43030782969045    3.42656463561612   17.53632120960237
C        -1.36837240182968    2.28430042484294   16.42995177785428
H        -1.59752903233634    3.30614818273158   16.14003994383786
H        -1.45172852434218    2.19154057353428   17.51124750241113
H        -2.08466178935026    1.60642719980754   15.97157676278971
C         0.04311311710909    1.93752385017398   15.98961058678014
C         0.48843814965311    0.64041937738167   16.27525769179799
H        -0.20459279365918   -0.02174138846930   16.77304144524084
C         1.74646451336721    0.13741772065777   15.96013640322293
C         2.01384902461347   -1.30378515100346   16.33182001596312
H         3.08083881562278   -1.50339961740844   16.39664088184557
H         1.57682119012681   -1.97282784335282   15.59203646314483
H         1.54777590000988   -1.52824050873923   17.28941995894218
C         4.98195231770151    1.30730443462839   14.97819469865133
C         3.83881723112022    0.45826607165118   14.86046434657035
C         3.95312764714039   -0.67839305604341   14.07166644736122
H         3.08497960298908   -1.29463031300334   13.89943745755009
C         5.15449604882006   -1.01122089017858   13.44610993179509
H         5.19547420310864   -1.90493099376350   12.83966137490804
C         6.27102916018403   -0.22834142815026   13.58502228233450
H         7.20341816261789   -0.49310436511161   13.10874704260202
C         6.20008889038003    0.95244301322821   14.34634701453644
C         7.28820710614038    1.83436158587826   14.51352388516644
H         8.22995712974543    1.60800806233446   14.03245509763305
C         7.13620422983151    2.95379023874200   15.28061967128762
H         7.95521380874404    3.63985249037045   15.43819006072269
C         5.88384654123940    3.23221683714121   15.86654982049622
C         5.72454126724198    4.44253788263676   16.72776645488371
H         4.73158797842400    4.45719720347791   17.16394362329068
H         5.86832116591572    5.34422321606836   16.13558973533932
H         6.47197069237966    4.43606011021422   17.52044058593500
C         4.75568340947370    3.51853321705224   11.72083443923193
H         4.55683256514964    2.48669263411055   11.44429477404592
H         5.81934736030206    3.63779717294626   11.91860373490977
H         4.48453616242173    4.17484226454450   10.89716782579603
C         3.95703543599911    3.87263057482225   12.96312601471944
C         4.09026275591556    5.18231209924524   13.44196436945805
H         4.73772377710210    5.84706912177916   12.88925669820511
C         3.44798343225362    5.69485136397836   14.56440543543100
C         3.70769736559201    7.14833448809529   14.89081561587887
H         3.48904365630159    7.36386091662288   15.93399709504234
H         3.09304358651585    7.79262527825008   14.26398380023472
H         4.74858292180966    7.39049318554830   14.68480720620360
C         1.68031816610349    4.54417992987909   17.45468595352614
C         1.84781034820296    5.37519841910690   16.30452322696018
C         1.03314653596005    6.49313893242665   16.18748900873378
H         1.08087258054010    7.09364141383989   15.29294486461266
C         0.10842826030550    6.82547832426312   17.17738735096988
H        -0.50635428373358    7.70400181832958   17.04159270728283
C        -0.03299004963713    6.06081668654917   18.30615556063424
H        -0.74197105968126    6.32542434156121   19.07662287031890
C         0.74495907119673    4.89875771819698   18.45884943513768
C         0.64022907033598    4.03524985734735   19.56930082811000
H        -0.07477287092279    4.26155063919733   20.34847961749493
C         1.44342804346703    2.93345005172161   19.64384702572285
H         1.39583318342641    2.26210363112768   20.48841571696601
C         2.34161064440199    2.65354337318814   18.59306282860967
C         3.23981061686574    1.46343555916106   18.68726501548130
H         3.91619001835764    1.44328111569516   17.83963031528086
H         2.64968651157521    0.54909213703559   18.69614956989551
H         3.81436004200175    1.50371127042225   19.61213287947484

