69
CSD_code = DOQGEY | q = 0 | S = 0 | Stoichiometry = C34H25MoO4P5 | MND = 6
C         4.95839548471709   -1.49728943213382    5.35458270123130
C         4.85624335688271   -1.46226781196236    6.74425695625431
H         4.23618228228017   -0.70358070779325    7.20881737104072
C         5.54163651880912   -2.38808918759828    7.50632589488602
H         5.45925138128181   -2.36743898354827    8.58289319164758
C         6.34123048522330   -3.33824131355019    6.88775005986827
H         6.87759852184116   -4.06030724990816    7.48498747415018
C         6.46537035758932   -3.35586443493961    5.50794211795285
H         7.10147429638458   -4.08668551871313    5.03062337472788
C         5.77929711110958   -2.43383607193996    4.73816024967004
H         5.88570644778286   -2.42556693732061    3.65851920009612
C         1.28380111228400   -1.75899080466351    4.86422401997773
C         1.83807383489332   -2.81275243547398    5.58790821263305
H         2.76129361346157   -2.66700150803616    6.12995597966657
C         1.21584671551929   -4.04602052446578    5.61533189927083
H         1.66418567125487   -4.85697172689928    6.17086402184564
C         0.01867170420852   -4.23864078843962    4.94627156099582
H        -0.46991735667604   -5.20123413856335    4.97378896742454
C        -0.55565952365403   -3.18678285806254    4.25288951998022
H        -1.49683328140287   -3.32409752764036    3.74109972263289
C         0.06655585538516   -1.95396468386980    4.21802168936025
H        -0.39578774876123   -1.13572038624885    3.68006978027700
C         0.86960399918764    2.43304817582796    3.81942476399523
C        -0.02274280535249    2.46960407237087    4.88816736750245
H        -0.40076624622953    1.53866577927412    5.29603063217821
C        -0.39846586303692    3.67838807224848    5.43968564113475
H        -1.07647058520600    3.69788228380346    6.28005648056463
C         0.10173055308959    4.86227756827400    4.92093515101525
H        -0.18190133667582    5.80669678081943    5.36042677124480
C         0.96836329205308    4.83356027308000    3.84190890491654
H         1.36045510547583    5.75333090133536    3.43390697799313
C         1.34849834199295    3.62509757480870    3.28585944985933
H         2.02595938400175    3.61679713008997    2.43767559493344
C         3.02297533231916    1.77573609397739    0.63204158654649
C         1.77574740388099    2.08251721195191    0.09964030537027
H         0.89360987426394    2.03718363672751    0.72947992912200
C         1.66732362983396    2.43744561263294   -1.23277593492274
H         0.69826418370086    2.67322580088083   -1.64746777804840
C         2.79790333571883    2.49302945041758   -2.03172697243644
H         2.70849029281980    2.77225196988802   -3.07085126002391
C         4.04386732283994    2.19547342708996   -1.50048404830021
H         4.92424792813910    2.24334531653778   -2.12380675853033
C         4.15882782426063    1.84182384645762   -0.17014000217674
H         5.12630758171875    1.61440722812263    0.26398578522993
C         2.85783304334293   -1.83571820450675    1.95907716544776
C         2.89476461853911   -3.09551834410601    2.55151906980770
H         3.67464381639949   -3.33460300930437    3.26187616796257
C         1.93339481387999   -4.03642591087321    2.23695707767934
H         1.96748854767650   -5.01107982338845    2.70053140069811
C         0.93026369748687   -3.73121328264334    1.33179142842369
H         0.17927701269809   -4.46844706643140    1.09035210266575
C         0.89779677668671   -2.48499700828456    0.72926522276357
H         0.12331018940901   -2.24710137741538    0.01495980510637
C         1.86416975479071   -1.54282269418601    1.02931426290067
H         1.85983315098743   -0.58193234041095    0.53018212899113
C         6.30719475778864    1.47354718850591    2.97335111647069
C         5.11956062756390    3.95227054603781    3.48445011232574
C         6.10121302235204    2.33220575153314    5.55457611338732
C         3.47992567414181    2.77476109049219    5.34532666135219
O         7.20603544657642    1.10233722261138    2.37503883653996
O         5.22715762972139    5.02015119799650    3.09253947981157
O         6.83821278084690    2.39800226980468    6.42464342009038
O         2.80256627235334    3.16640792250988    6.17545618969965
P         4.15507452939778   -0.17995023627117    4.41836335048470
P         2.01300916802948   -0.08901482775292    5.00535348909607
P         1.29668094162920    0.80032518620637    3.12004609423113
P         3.28657867786586    1.34471803918988    2.37356737786618
P         4.21191238849193   -0.65199284839638    2.27707221194555
Mo        4.83985727207870    2.12604738425180    4.09283316149184

