69
CSD_code = DOQGUO | q = 0 | S = 0 | Stoichiometry = C34H25O4P5W | MND = 6
C         1.31276849648665    7.10612102943732    0.60062334536925
C         2.44057318636674    7.13524052498682   -0.21515729326226
H         3.40580309999816    6.88452550910222    0.20896068817010
C         2.32011012938899    7.48150725261250   -1.54681624826209
H         3.19434409571280    7.50001289648996   -2.18022406487794
C         1.07704290243718    7.80987493165381   -2.06648189323757
H         0.98343939947318    8.08312630643881   -3.10680894116672
C        -0.04492735734503    7.79289887774189   -1.25391241360968
H        -1.01169515079848    8.05306925702483   -1.65920113624953
C         0.06915040220736    7.44593380335219    0.08015191423595
H        -0.80640577026417    7.43037489670866    0.71994493279243
C        -0.80956020637943    7.79901654611900    3.82492667014796
C        -0.31109824887747    8.98808630770592    3.30290951000251
H         0.36639889202204    8.97760209911002    2.45540572469172
C        -0.67198669851146   10.19766854714613    3.86921648624902
H        -0.26427719059262   11.11427072798487    3.46975388691837
C        -1.53776746530432   10.23088955331952    4.94862258157065
H        -1.80548288160799   11.17565548908905    5.39718941328152
C        -2.05793822071072    9.05058821909277    5.45584423446997
H        -2.73573107093664    9.07339799591262    6.29627134216622
C        -1.70225007452232    7.84101823843931    4.89290769511465
H        -2.09631642824104    6.91313775845416    5.29199583233112
C        -0.42882212813465    3.59247051522733    4.84129526546660
C        -1.64309819962545    3.40503095687831    4.18749426408213
H        -2.10015224311623    4.22747292302901    3.65163232632993
C        -2.27055372479977    2.17463032470919    4.21244070118683
H        -3.20958359842575    2.04417456745302    3.69492971403648
C        -1.70443401483498    1.11663103731487    4.90307127846184
H        -2.19689805138446    0.15584990753362    4.92264689466998
C        -0.50997360228649    1.30112518457523    5.57913572941496
H        -0.06738870422200    0.48553389946144    6.13247847694006
C         0.11710948142360    2.53202625169120    5.56150133101251
H         1.03815995290376    2.67020231171786    6.10879493833087
C         1.18751828433412    3.51986809347813    1.96360501010361
C         0.18489437121154    3.80564131912125    1.04147164263764
H         0.16832651671794    4.76613756672709    0.54244396961760
C        -0.77723688915330    2.85722880851157    0.74746234034912
H        -1.55881857213709    3.09138335793341    0.03971872212503
C        -0.73219491231595    1.61049122948953    1.34776927984185
H        -1.48031243078574    0.86867468565741    1.11172344839997
C         0.28030065696086    1.31139688973118    2.24436474605443
H         0.32505624316655    0.33659826641143    2.70669702638167
C         1.23687797318276    2.25896530501857    2.55299882543295
H         2.02284386350776    2.02348877502971    3.25759174626051
C         3.25212688382146    3.83103948770728    5.36191619181320
C         3.12703729155811    3.83595182270734    6.75021931663853
H         2.49428578289727    4.57928403404428    7.22086974441057
C         3.80528745007030    2.89880187943417    7.50494251168357
H         3.70317051059376    2.89661866364741    8.58000088225879
C         4.62232615840860    1.96688809536471    6.88185905762063
H         5.15213443397743    1.23526463054427    7.47321978501202
C         4.77184594417272    1.98066594454191    5.50459222003497
H         5.42183568712448    1.26500640236368    5.02305293815433
C         4.09337799248179    2.91441118089007    4.74246522951986
H         4.22059846314741    2.94545328894099    3.66604477623436
C         1.75404851535648    8.15841622718868    5.38942851296886
C         3.42290159665082    9.38929389552804    3.51995832107084
C         4.41612877791238    7.78472587963730    5.59418080401475
C         4.63677999474753    6.88175476772513    2.95954539463221
O         1.08693687941838    8.53359063362675    6.23963434741435
O         3.52897407304467   10.47028801083736    3.15245009596123
O         5.14900035133272    7.89200757891047    6.46890753375254
O         5.53544757109260    6.51727406995481    2.35071325110886
P         1.58273421674366    6.70060713036338    2.34926976247909
P        -0.40769477669535    6.16352004138440    3.11446257162259
P         0.30446985244380    5.26015036959322    4.99961166406580
P         2.46050347405726    5.16489751671028    4.43378963375648
P         2.53701500446115    4.71184614727958    2.28179171670129
W         3.14421375901141    7.52470335644022    4.10938379310418

