79
CSD_code = DOQKUP | q = 0 | S = 0 | Stoichiometry = C36H37IrNOPS2 | MND = 4
Ir        1.19719592732998    1.88757824196742    4.28884821746467
S         0.53188666284164    1.58184573944369    2.11084443910853
S         3.46759093311765    1.55720769300392    3.65862061010189
P        -1.16876688938543    1.77564073366738    4.68431213988906
O         1.31350591967640    2.99930464061430    6.91172881251723
N         1.46049888538198    2.44081783545359    5.88079973166569
C         1.94353907768321    1.63647177788799    1.03958219235495
C         2.47368614070963    0.44861317962585    0.53892888177674
C         3.54144058974159    0.52082560921388   -0.34079165800421
C         4.08327807975041    1.73772274100485   -0.72627862784515
C         3.53655406102019    2.90349316195563   -0.20886282935063
C         2.46881637725140    2.87564763487843    0.67225864735482
C         1.91201495989893   -0.87168989894003    0.96594277749495
C         5.25616377308044    1.79583694016178   -1.65844889305024
C         1.90621083140460    4.13878815559673    1.24554035878278
C         4.19934191736834    1.15038142917779    5.22469913271514
C         3.95575646168184   -0.08835028453050    5.82000571275754
C         4.58042971496568   -0.38650326850789    7.02144181214433
C         5.44444362473137    0.50912653824433    7.63176838904076
C         5.67271563875683    1.73418623172681    7.01877796023065
C         5.06411241478418    2.07145215989139    5.82197776946822
C         3.01697617259216   -1.06519596649647    5.18320704488062
C         6.11489103134265    0.17985018347619    8.93192620244010
C         5.30331918574388    3.40352485743029    5.18354017517816
C        -1.92654461304221    0.12392374149204    4.58526134386788
C        -3.18039083905925   -0.11396905688490    5.14393458973774
C        -3.74648008784917   -1.37184320557371    5.05281949997063
C        -3.06875581903749   -2.39674141191442    4.41029095124909
C        -1.82068738116274   -2.16376010583361    3.85712249578640
C        -1.24916257179064   -0.90701323528425    3.94545151352046
C        -2.12280056291167    2.79397513010154    3.52234462807936
C        -1.66806765629419    4.09732407816863    3.32921843225113
C        -2.31606923516546    4.93477763556336    2.44316954598345
C        -3.41563057826025    4.47189539627212    1.73602083312016
C        -3.86077087005885    3.17351203896086    1.91649696519098
C        -3.21718419901514    2.32962949658907    2.80597250893892
C        -1.74459421782841    2.32351987575264    6.32246097636258
C        -1.30354586495659    1.58065409386594    7.41626165840821
C        -1.67112511569601    1.94312844613559    8.69644695817817
C        -2.47570660301906    3.05477157451754    8.89528409931554
C        -2.91117854716086    3.79846391277159    7.81194250134444
C        -2.54678049809484    3.43903344599666    6.52549899206789
H         3.96207101645816   -0.39599122820461   -0.73062088720953
H         3.95471687991386    3.85846287523537   -0.49625699732838
H         0.84619828049896   -0.92361902853814    0.74238091717088
H         2.42161339068925   -1.69145978397576    0.46587510852444
H         2.03245865545099   -0.98824762734880    2.04397485312504
H         5.30840239450369    0.90096054158494   -2.27449135596142
H         5.19368499805731    2.66799632151475   -2.30622189706379
H         6.18175990586319    1.86790082411203   -1.08592167775650
H         2.03300294932163    4.13513986631287    2.33174201402185
H         2.41033146658285    5.01058262532267    0.83653238419510
H         0.83774155251525    4.21069300855041    1.03881537918964
H         4.38946195022492   -1.34356786508247    7.48773470144867
H         6.34124995747640    2.44314438177993    7.48755644984348
H         2.02797297186704   -0.60488853449785    5.06061380717477
H         3.37802711171481   -1.33994950624719    4.19218205060270
H         2.91393358297981   -1.96278571293574    5.78777840404809
H         5.92589283316696   -0.85208598996627    9.21750685505066
H         7.19077320366674    0.33018444758125    8.85516895498139
H         5.74352065253876    0.83105050511374    9.72333039488993
H         5.99515494250136    3.99946256493992    5.77315878336556
H         5.70575651009104    3.27572742126303    4.17955075278472
H         4.36028394549639    3.94417616565765    5.08877424471769
H        -3.70541864814788    0.68595898277411    5.64831947133735
H        -4.71959181862070   -1.55443304860509    5.48461309967299
H        -3.51524197331556   -3.37770264249658    4.34338568176170
H        -1.29131550646587   -2.96170104207478    3.35807695482631
H        -0.27756906008531   -0.71216203564432    3.51176956327685
H        -0.79494525348645    4.43627794381433    3.87430267931954
H        -1.96101736229963    5.94388828706098    2.29411240252398
H        -3.91890814779240    5.12229097416534    1.03612322524356
H        -4.71027955476050    2.81134232071932    1.35634520518497
H        -3.55926392269325    1.31291236880401    2.93358536688332
H        -0.66941964407716    0.71878597440787    7.24817269343551
H        -1.32529026580360    1.36613880835424    9.54084775882363
H        -2.75885909697042    3.34319849674565    9.89645156698127
H        -3.53611017468283    4.66561047248669    7.96735752894138
H        -2.88710495346973    4.02244995062417    5.68170606947624

