85
CSD_code = DOQMAY | q = 0 | S = 0 | Stoichiometry = C44H33ClNiO4P2 | MND = 4
C         7.25447400399350    5.64526185431015    5.07889088736041
C         6.12607306086918    3.93430077343760    6.70531563444429
H         5.65399038411063    3.19557059164550    7.35075667000932
C         6.09512428319916    6.19584387533832    5.87302554858948
C         5.58471608535082    7.46195231523195    5.65067477585738
C         4.51348488240771    7.89777564336667    6.42468685325730
H         4.10444823157572    8.88672273665166    6.27880880361311
C         3.97390445985882    7.04734709208639    7.37466988224122
H         3.14579860832692    7.38593041057510    7.97995093635906
C         4.44714071646065    5.74803948107729    7.54184579840032
H         3.97718052176737    5.08693586965982    8.25530365359092
C         5.50973488930757    5.31506450540961    6.77481411001508
C         8.18459699456338    5.03553417236628    6.09814461901782
C         9.54162447121970    5.30299050358140    6.11688933181066
C        10.33716640298461    4.66253417818643    7.06225291614101
H        11.40173299336790    4.84232768267683    7.08986013098582
C         9.75175781088613    3.78613579093475    7.95972221243051
H        10.36839854066159    3.29119358814165    8.69551500966316
C         8.38813656372132    3.50742135303705    7.92213490939101
H         7.95902626575978    2.79780153622215    8.61369652501596
C         7.60044017733356    4.13279642843292    6.97730516145363
C         6.63765516347885    4.43570603923725    4.39022969549288
C         6.04388719921165    3.56947928840350    5.23075349049050
C         6.75139372161382    4.30167467969075    2.92936963849766
C         7.41157945476260    5.43477918722068    0.97377556743744
H         7.99056821964016    6.32510314991875    0.73038404540733
H         6.41812393508071    5.48925415595416    0.52277753749529
H         7.91398117438650    4.52944252044946    0.62532480084870
C         5.35431340202916    2.31423055459706    4.84232965043857
C         3.70853063179527    1.43587541829426    3.41119505832430
H         3.76570994698568    0.58577415634279    4.09384291978696
H         4.18412906561620    1.17952612066574    2.46308844404931
H         2.67429684583722    1.73138774842015    3.24630513502247
C         5.11015096061741    8.33092763895309    2.96699327769030
C         5.31100315289873    9.18498592056337    1.88400907779442
H         6.18859326132242    9.81741288162193    1.86626551580896
C         4.40236139446976    9.20566139349522    0.84358006777092
H         4.55657049906814    9.87108613871460    0.00683272981914
C         3.29853453754913    8.36677446700964    0.86919430481279
H         2.58891099660949    8.38292954555890    0.05497693987354
C         3.11072399734183    7.49857229973578    1.93242339502812
H         2.25779846839192    6.83542938747187    1.94546097302080
C         4.01677995230452    7.47120742837402    2.97752786573224
H         3.87770689562358    6.78381700614137    3.80126518648264
C         6.64652706736256    9.96927007398698    4.72733271947681
C         7.90306736861800   10.32984832276332    5.19969034250885
H         8.69940675967715    9.59616353739949    5.18874867695663
C         8.13124553677338   11.61469801008178    5.65561297906621
H         9.11116356841793   11.89065783548896    6.01648598418881
C         7.10257568925333   12.54231345533903    5.64131451426507
H         7.27687726722064   13.54845256855414    5.99370550055015
C         5.84904158453508   12.18592325313921    5.16816461198215
H         5.05090616738160   12.91420221154550    5.15406159893826
C         5.61542692670822   10.90214481339492    4.71031113673197
H         4.64185989103725   10.62635489496424    4.32868665818635
C        11.39576692138633    5.61248590630094    3.95686022119112
C        11.15207730278147    4.92158314465211    2.77612826292300
H        10.15714385299220    4.94572793712658    2.35097003017734
C        12.17466851863598    4.23378030222299    2.14929313700473
H        11.98546169867916    3.70103395841704    1.22897653265075
C        13.44387118753709    4.23341904849004    2.70371769721896
H        14.24549661984881    3.69815511778305    2.21640898967499
C        13.69105694838648    4.92495659953985    3.87957265759023
H        14.68402450537258    4.92675270213455    4.30550519597184
C        12.67235819239596    5.61622037607105    4.50860895818057
H        12.86678008852152    6.16854464234578    5.41762981694166
C        10.77101911843395    7.85721605568014    5.57044700886747
C        11.55336293267336    8.71485187779198    4.79981082465923
H        11.72319538790981    8.48316821380983    3.75741799861938
C        12.08181894451567    9.85948743961558    5.36532455228853
H        12.68808001410000   10.52380621966040    4.76742610832828
C        11.82709643209537   10.15914778256012    6.69495850646016
H        12.24089886632107   11.05478383432904    7.13525526495042
C        11.03492892239659    9.31674294499011    7.45807726026261
H        10.82775931772554    9.55651974830275    8.49098507204636
C        10.49965764665674    8.17030912252624    6.89835454351764
H         9.86625358716128    7.51839037499354    7.48472416437811
Cl        8.99761586962067    8.16870363293449    2.41356145044813
Ni        8.07562920741851    6.87609940823413    3.83282753615935
O         6.43791934728191    3.34815376869583    2.26194153309824
O         7.29500834464528    5.41554655722591    2.39255493760736
O         5.61924793913219    1.23451656867772    5.30673230394966
O         4.38021318661511    2.55783169894113    3.96797480867688
P         6.41319254700867    8.24119195154746    4.22256253843258
P         9.98944550040553    6.43612657854426    4.75720767809680

