29
CSD_code = DOQNUU | q = 0 | S = 0 | Stoichiometry = C14H8Br2Cl2N2Pt | MND = 4
Pt        4.17224915586126   10.14269506385223    7.09925193422748
Br        3.90953208607620    2.93915165400968    1.62369511372989
Cl        5.56657318228993    8.98490094593781    8.53779148522229
N         4.11572561414662    8.68064087184967    5.97961493776226
C         4.65884691780722    4.37073351743419    3.96892347002294
H         5.16115851663931    3.45610087986956    4.24317980702656
C         3.96417148399987    4.45130615583382    2.76901114179234
C         4.04256888651682    6.64721607053655    4.43296686009657
C         4.08243305390570    7.76206321032811    5.27971581850506
C         4.70004807490360    5.46778396656143    4.80336384600588
H         5.23466481373915    5.42524074145374    5.73962176165543
C         3.30841825871632    5.61545506910706    2.39003634774214
H         2.77499153230948    5.65555337089890    1.45305934880778
C         3.34570907820255    6.71569503669265    3.22051785039688
H         2.84230991691719    7.62907295870301    2.94386547262622
Br        4.43310554910230   17.34611883461051   12.57506821504365
Cl        2.77763625711319   11.30025046800373    5.66084739193977
N         4.22884446491417   11.60486146317143    8.21873890937512
C         3.68597450553279   15.91491276149157   10.22890165464085
H         3.18349079280921   16.82941942545542    9.95457017160795
C         4.38019576009772   15.83439792632606   11.42909716941991
C         4.30311375049442   13.63867171635983    9.76485269985412
C         4.26299996619536   12.52356492843702    8.91845447073974
C         3.64548707942032   14.81797597959008    9.39428175925223
H         3.11119842037442   14.86046260393309    8.45783048015054
C         5.03648058188357   14.67053846109863   11.80801201497123
H         5.56963981848549   14.63052001907849   12.74513635027844
C         4.99984224116563   13.57038948657546   10.97738238660852
H         5.50359024038408   12.65720641279037   11.25401113050476

