59
CSD_code = DOQQAC | q = 1 | S = 0 | Stoichiometry = C19H27BN8O2PW(1+) | MND = 7
W         0.17181803274461    4.54144620117512   14.00430670595796
P         1.12172302578422    6.09787409503873   12.24733693454757
O        -2.38481673715589    0.56684493734807   14.11714320880040
O        -2.11334318760100    3.80108786588301   12.29555688708743
N        -0.68614530798344    1.38878350462320   12.88191663844661
N        -0.73463105928009    6.37296813002755   14.62541472553971
N        -0.51947236110397    6.87734373056352   15.84591844478708
N         1.86656088423753    5.09203420663042   15.25238914700588
N         1.64388791504636    5.76315426817111   16.39042392750159
N        -0.79381263251447    3.98970241777527   15.88497202933339
N        -0.54901640837694    4.73008975630501   16.98019179110029
N        -1.22314104478030    4.14020570817102   13.00362735297155
C        -0.12577120041766    1.79296618107034   11.66946819374830
H        -0.57571937268012    1.39897238182994   10.77660826507693
C         0.94202048864609    2.60219145686323   11.64406326602199
H         1.38886583864514    2.84310548126503   10.69060097266466
C         1.52625524107435    3.16096492037374   12.85953313648544
C         1.13779811615342    2.43512035647657   14.06985727379767
C         0.01569302544507    1.64502907825405   14.02472175014125
H        -0.31565795214293    1.07266546261825   14.88503356387424
C        -1.96164292087235    0.78904072670520   13.01061909874475
C        -2.69729484042071    0.50491136718372   11.74393376333730
H        -3.64862140390252    0.04613794056277   12.00012221472012
H        -2.13675116917091   -0.17413932483152   11.10507160534310
H        -2.88446804137467    1.43476549057902   11.20955806044491
C        -1.27812423469528    7.96466746741048   16.02652960348557
H        -1.25819920617444    8.51323773012678   16.94567792395915
C        -2.01372570307562    8.17882499324454   14.87638630437966
H        -2.71907662560604    8.96030489909727   14.68735400560861
C        -1.64179081059864    7.14365792514939   14.02574628389647
H        -1.99741963857963    6.91863977955550   13.03621424125645
C         2.80577333253067    6.07622434170564   16.97877596838070
H         2.83572034531042    6.61283163409423   17.90416395746517
C         3.83162205031316    5.59271633139040   16.19338805524859
H         4.88405605155648    5.66633068705679   16.36826072164257
C         3.18828370376836    4.98220376759334   15.12192817680988
H         3.63888764022102    4.47264851363321   14.29136211801097
C        -1.29833647130322    4.29110504545864   18.00100784721035
H        -1.24629905275945    4.75182020024496   18.96596518529748
C        -2.06056610159108    3.23135043468220   17.55638934707399
H        -2.76547007103862    2.65000150777960   18.11164706723903
C        -1.71547018582669    3.08679655789547   16.21611271714286
H        -2.11413973546586    2.38550184877180   15.50686922798318
C         0.09278858558422    6.22385029478261   10.74194648241362
H        -0.91739474043349    6.53045889192167   11.00277957291759
H         0.03837805112395    5.24506755394623   10.26801902921157
H         0.52287750491681    6.94487856764507   10.04756294956113
C         2.77669928080217    5.85224908321298   11.49320930972364
H         2.96039121080030    6.65704969167396   10.78191066451205
H         2.82408214761593    4.90245614336701   10.96688913104159
H         3.54842817623844    5.88128321714555   12.25969834593543
C         1.30081622402471    7.85491218849067   12.75106364579795
H         1.76228688219157    8.42168890996765   11.94303904935308
H         1.93773924309900    7.91524379691673   13.63385473149871
H         0.33319610344130    8.29420357655892   12.98387855868458
B         0.23571176724842    6.04905664512283   16.90530488988604
H         0.26316341155200    6.60083576234960   17.94515339295188
H         2.59117717526834    3.37396721162989   12.76793408928290
H         1.81991676154612    2.32426845972511   14.91258844765190

