68
CSD_code = DOQQEG | q = 0 | S = 0 | Stoichiometry = C22H32BN8O3PW | MND = 7
W         9.19483475796922    3.68874905424502   13.47386288361262
P         8.37629755312082    5.39251331661049   11.86083173337736
O        13.54661361431709    2.37526203617018   15.09235062472384
O        14.39518516448721    5.68147624540744   16.69670783123739
O        11.53436912480651    3.30040763850645   11.72289977733453
N        12.49565637754441    4.28562208061855   14.54054302104561
N         9.42242419530174    1.82702565358451   14.57887312275179
N         8.33298069942694    1.11673863494550   14.90240556928541
N         8.08707185593690    2.27468191851310   12.27929588409012
N         7.14026195332803    1.50580049786571   12.81883219978425
N         7.32999418080881    3.93575949725131   14.57832731237697
N         6.55734820621873    2.87339457572893   14.80974724379037
N        10.63577448505029    3.43892779213795   12.49140057895244
C        11.60904077761582    4.17111272778865   15.69055272718617
C        10.18180690122636    4.49307683596150   15.30449720864984
C        10.00703560299958    5.60004455509052   14.41572193497206
C        11.20636260758755    6.12261120184991   13.77015145163091
C        12.36887280322247    5.45859805840401   13.80149864543844
H        13.24764174735399    5.80880242283057   13.28678541648464
C        13.45690779059330    3.34359773469192   14.34922802516203
C        14.37287780231702    3.53602198508197   13.17166688177838
H        15.02325435757402    2.66865308678570   13.09878881173205
H        14.98272922454032    4.42650706163257   13.30968921631291
H        13.78592987703475    3.63128376112209   12.26088656130852
C        12.07768161090106    5.15116448560483   16.80182681100837
C        13.54389841397381    4.93517064458490   17.11645025606345
C        13.85865769732079    3.70843406077450   17.92280352500839
H        14.85509004779176    3.78291624433405   18.34976881145060
H        13.84223865341306    2.85973592270737   17.23687046331850
H        13.12178028746816    3.53802816175389   18.70221891865585
C         8.70058777375062   -0.03570680761866   15.48874259862763
H         7.96987566519239   -0.74358832253151   15.82412935225519
C        10.07514774310389   -0.07252483020949   15.54090008373077
H        10.69830487153859   -0.84359478265816   15.94321677586187
C        10.48262310390447    1.12184299773826   14.94386486569653
H        11.48407439984501    1.46139799267573   14.76300088568878
C         6.63347409067717    0.68459763853397   11.88681582996315
H         5.86063978485612   -0.01769107535792   12.12431581210257
C         7.27927268157058    0.93591444565963   10.69434977300339
H         7.12001906490150    0.45911323096472    9.74938357842375
C         8.19317681606470    1.94425873871611   10.99845140296251
H         8.91901674092678    2.41608150564494   10.36164207967581
C         5.45069096134274    3.24013861878463   15.47237997408824
H         4.70488558766378    2.52405454334968   15.75078806786683
C         5.50682088612719    4.60166653939273   15.68063444491802
H         4.78991909256147    5.22160271869506   16.17817862717178
C         6.71172187678726    4.98955496714596   15.09749578246915
H         7.13817099754438    5.97382580325381   15.05183868586808
C         6.78735404706399    4.98925467834639   11.01695305246831
H         6.52298007234722    5.76905569297029   10.30337087505880
H         5.99954782691504    4.90830940303848   11.76592878857065
H         6.86999265881507    4.03836514490430   10.49534606983146
C         8.00784043724482    7.15475495472056   12.25324168204651
H         7.69408222579742    7.67027646951551   11.34583838051295
H         8.89429657519249    7.64126746625542   12.65134584830536
H         7.20662058730329    7.21415188997371   12.98714632995139
C         9.48883333564278    5.63487690425718   10.42854982416136
H        10.43230416985670    6.03619714488365   10.79426658059434
H         9.05051285349125    6.31431235963911    9.69796557460795
H         9.69359690591015    4.67404002754981    9.96246494870818
B         6.95014608388455    1.47083292490493   14.34681705958775
H         6.13322953955061    0.67577278632489   14.66103862070415
H        11.70368003509166    3.15196709811829   16.07482809909374
H         9.52458078239892    4.46226417599286   16.18115469596194
H         9.25729724038422    6.35248438630650   14.66226259660737
H        11.15204407479753    7.06333367444212   13.24011085299430
H        11.93983158120205    6.17382042218319   16.44584424131616
H        11.46888845749732    4.98730058090894   17.69071381002021

