81
CSD_code = DOQSIM | q = 0 | S = 0 | Stoichiometry = C25H50BrNOP2Pd | MND = 4
Pd        1.85815922595491    9.66575248299325   27.40944196610718
Br        3.46913854378931    9.55808500730514   25.61442916799946
P         2.48783744922378    7.61698378226774   28.24191054403468
N        -1.57863192260590   10.33271093581809   31.63289398684077
O        -0.10305706233848    8.66879933423346   32.04417277350956
C         0.67893691699447    9.80674668055822   28.97633353956149
P         1.13665920045176   11.72684655684880   26.73828362540929
C         0.05242473965067    9.79101179685196   30.01444624712940
C        -0.53240473053801    9.54487294792797   31.30224891727834
C        -2.12472543622010   11.39218516586102   30.81304969634923
H        -2.32313897584018   11.03432915353692   29.79846407823896
H        -1.41564260096375   12.22950712267665   30.75151428032825
C        -3.39675008103917   11.80783390154774   31.55145642514378
H        -3.65500340793004   12.85018070746259   31.37506895707819
H        -4.23273460636696   11.18205709493564   31.23620491970583
C        -3.05168890712116   11.51764939326702   33.01224065118922
H        -3.93280106663154   11.41327904559841   33.64148577339571
H        -2.42622721441607   12.31617014355207   33.41377202107788
C        -2.25165396968437   10.22278620986135   32.91215130350674
H        -1.51645805465905   10.09503032951055   33.71003809327196
H        -2.91068038085095    9.34520724114898   32.91438953040873
C         3.20925114031870    6.46214829643648   26.96386985851483
H         4.00326590622086    7.06766706324571   26.50869694750239
C         2.15786884696902    6.20748758803616   25.88345919905420
H         2.63492608105455    5.87726072909633   24.96259093963851
H         1.60309944180150    7.12707598583723   25.66439248360244
H         1.44932174460784    5.44283355337867   26.19391958580321
C         3.84374669057877    5.16482172216762   27.45159196424280
H         4.43512823303534    4.73820504357571   26.64202334360771
H         3.09678606659144    4.43053417463546   27.73662647991435
H         4.50653923405095    5.33261602834602   28.29699809257608
C         3.84063173589871    7.82956036623773   29.50066868842849
H         4.04331832036061    6.86444147871311   29.97985248777046
C         5.10293564710441    8.34515435084800   28.81009330368725
H         5.85754152009714    8.60438939092471   29.55162367521589
H         4.87433261558157    9.24539859752614   28.23351569605785
H         5.53061275222964    7.60697724790522   28.13577504936389
C         3.39270929852639    8.83591265943307   30.55820142398322
H         4.19524611808094    9.00981078439831   31.27385176638485
H         2.51647125362326    8.49558541930304   31.10551179973171
H         3.14678502034271    9.79069950744523   30.08044513347377
C         1.13215210344554    6.74115242202392   29.17678233191529
H         0.95855241945900    7.41131408201943   30.02736393988724
C         1.44553360166518    5.35728178922092   29.73303668079286
H         0.70726716070792    5.10926467692944   30.49416471584405
H         2.42729102739169    5.32106727154806   30.19841104795219
H         1.39222987776600    4.59492183114578   28.95946671155975
C        -0.14859650632409    6.71983995187010   28.34041279228699
H        -1.01702671622247    6.62037976667709   28.98884544855725
H        -0.15290690726592    5.88874239339833   27.63869949772825
H        -0.25363685351364    7.65278461373477   27.77497057201586
C         1.48067860931695   12.22025282193092   24.96891545118741
H         2.55742491544828   12.02681726367794   24.87196095621724
C         0.75412768979095   11.25041655526814   24.03616285188445
H         1.23139193886035   11.24050745737039   23.05841437061742
H        -0.28661061749764   11.53886053407248   23.90393684938144
H         0.78767985024433   10.23248673963930   24.43444809272584
C         1.23744489247012   13.66588071643722   24.55019854722340
H         1.65489602333375   13.80825431306071   23.55419512865743
H         1.72571108584485   14.37410229179415   25.21478075201219
H         0.17961473456660   13.90449479279660   24.50223887033095
C         2.06747097909745   12.99942215172314   27.73465234555555
H         2.00974296770318   13.97567638121799   27.24066980886535
C         3.52228241056771   12.52613944810297   27.76436922844369
H         4.13772837719877   13.19909161827901   28.35996575748152
H         3.94596516876387   12.47303498414163   26.76151969444027
H         3.57187289566644   11.52340412206691   28.21910171262537
C         1.53371305768202   13.12330266165926   29.15871544327160
H         2.21555650105272   13.72926909539401   29.75434464059272
H         1.45734792720961   12.13770430350245   29.62203419155842
H         0.55555361492573   13.59901721117599   29.17971223238199
C        -0.66782807423959   11.99531219253680   27.12980425235265
H        -0.67279094521752   11.90411478255765   28.22350730396813
C        -1.27258306887980   13.34054582177231   26.74846666603501
H        -2.20400934911927   13.48966709352965   27.29449130838437
H        -1.50499962075286   13.37910980539469   25.68734134765465
H        -0.60157452909433   14.16182287784916   26.99076491364589
C        -1.48584575749208   10.82740110300499   26.57851395463000
H        -2.44870380150820   10.76427059871991   27.08370907685946
H        -0.95185719974918    9.88300975352498   26.74341171975744
H        -1.67183520925237   10.93695668796024   25.51319437659406

