36
CSD_code = DOQSUZ | q = 0 | S = 0 | Stoichiometry = C6H17CoN6O6 | MND = 6
Co        2.86798429793514    5.47347818180452   11.98957433067763
O         5.29741723326042    5.88423409636259   12.76946630842633
O         4.73935560265275    6.87781098231809   10.94266091043696
O         1.25983336008280    7.50517471622200   11.24888846866535
O         2.38128610557368    7.95645557304891   13.03002737165757
O         4.29956587751042    3.51811222856958   11.00427316258477
O         3.09222290317622    2.96206653677917   12.69830089595004
N         2.68524186312993    5.54189680992572    9.92315112360527
H         2.17739712686482    6.42014422803119    9.76741134651235
H         3.62678158077996    5.68557279745561    9.55212274454107
N         0.79181908544015    4.69957263915408   12.00625897377855
H         0.28668618447556    5.56697401459852   11.80285745845391
N         3.01526272533671    5.50992230717517   14.04472039257015
H         3.96674256651837    5.22728556761187   14.29179273142405
H         2.95862895032332    6.51756413358067   14.24466649008968
N         4.51534192163131    6.16669099993010   11.89292132761809
N         2.10937924492380    7.20288704055930   12.09511759241838
N         3.50997118379290    3.78412026701367   11.89789673037353
C         2.03535279136581    4.50090791733991    9.12440913166004
H         2.58145692097492    3.56359946279873    9.25470643428754
H         2.07305722202106    4.76774922127858    8.06082751117195
C         0.58024250958296    4.33034533205025    9.54068230044413
H         0.07443917113799    5.29769580437126    9.48648474567576
H         0.09217649228379    3.65526213040369    8.83704362231008
C         0.42420049644635    3.75274257160671   10.94239382253320
H         1.03923475754622    2.85559749511541   11.04998567781206
H        -0.62588592048641    3.45272163494137   11.07356867787614
C         0.27140654595955    4.18325012044321   13.27916126643215
H         0.68199228901277    3.18016057995780   13.41851419073126
H        -0.82329187059819    4.09885584233563   13.21655086148220
C         0.63605941528980    5.03643730892995   14.48960395512964
H         0.47417828248588    6.09477623511597   14.27464207512824
H        -0.02580482262043    4.75900061681838   15.31043163956361
C         2.07970109941272    4.81124689645250   14.92824772409792
H         2.20982470732279    5.16312735182911   15.95857179098893
H         2.30434209945398    3.74306035807117   14.89376621289168

