75
CSD_code = DOQTOT | q = 0 | S = 0 | Stoichiometry = C30H39BrO2P2Pd | MND = 4
Pd        2.94880607963449   12.39500931831489    1.67823977016196
Br        3.09839378190334   13.50887292844056   -0.51056941601849
P         2.76654662020681   14.29146837596715    2.85430965229827
P         2.70267733509785   10.36410209601138    0.70485873458954
O         4.15508581375520    9.63564634174363    0.73922091382459
O         2.31018158719172   14.11285632352356    4.40398105089962
C         3.59634343528717   11.49204130140204    3.34425531903778
C         1.68061641711871   11.83553311955275    4.92307151959771
C         1.35843075723197   13.18855882727256    4.79797522905138
C         5.21707387575942   10.54055966422366    0.68051681054473
C         3.76563838245818   10.72569907020921    5.62730710512111
H         3.31168037236932   10.61423295692737    6.60212322672717
C         4.90900420804573   11.06110509647693    3.13436644733291
C         2.26340756053954   10.21285718706826   -1.10223599157869
H         2.98030073625588   10.87833017715077   -1.60349131281163
C         1.59939647730880    9.12777447361189    1.54410614179907
H         1.26014100042925    8.39912855753921    0.80081038710906
C         3.03846034912440   11.34521589297989    4.61117957190174
C         1.36842806325633   15.37971263892069    2.25576409912139
H         1.01456359685020   15.89654769170755    3.15986461939836
C         5.63614422847885   10.46681942877857    4.15927657195625
H         6.65104958025497   10.14420862950361    3.97258049063577
C         0.71491860681724   10.96606252384676    5.42394861218035
H         0.96494581161189    9.92029417060271    5.52907340493784
C        -0.54303637803733   11.41905822784038    5.77209769485619
H        -1.28095274810301   10.72684184385202    6.14847530175870
C         0.40213331191464    9.92103545461346    2.06862522592980
H        -0.21673114432821    9.30597075394378    2.71960487917037
H        -0.21737327542032   10.28396604863018    1.25013569893599
H         0.74673566605340   10.78986122679320    2.64302201863137
C         5.90352140586193   10.69798978827109   -0.51216772278909
H         5.59242052288025   10.12512003907164   -1.37275104883606
C         6.96453180321721   11.58371749495115   -0.58960188743699
H         7.48416589169194   11.71366643595699   -1.52587048870953
C         5.57658578521615   11.27178964027054    1.81882691511953
C         0.85941665357290   10.74340390704024   -1.36512894593927
H         0.70693188387210   10.88432127153093   -2.43308191871476
H         0.71847459143402   11.70829210632550   -0.87653313027288
H         0.10415482909512   10.04890327453554   -1.00091248820226
C         4.23846135179743   15.36632548666655    3.14986144520521
H         3.89329770554198   16.36977071250785    3.42628561110473
C         7.34249007128618   12.30567167663051    0.52807867001734
H         8.16490352611085   13.00250551583024    0.47191990001348
C         1.72337323627815   16.41709138971218    1.20071570534180
H         2.10159224647950   15.94278089059529    0.29878430699113
H         2.46547092297351   17.12024338499148    1.57268956629171
H         0.82869763638483   16.97878249725225    0.93534864531764
C         2.45468909396638    8.79859980941035   -1.63798207496267
H         1.64282714875427    8.14302273793088   -1.32903936767513
H         3.39344351428752    8.37270832930150   -1.28772217886399
H         2.47018120768374    8.81800371933761   -2.72629873536798
C         0.28393983014071   14.42448823602993    1.75100728358578
H        -0.62863044150252   14.96752701533464    1.50999673045039
H         0.04393967125756   13.66497721226561    2.50205997904004
H         0.62571278482416   13.92181613096042    0.84144475148409
C         0.10053808482901   13.64614571638918    5.16814868654638
H        -0.11685297530466   14.70038194359206    5.08463288753909
C         5.04406750756957   15.41050749232076    1.85487066903432
H         5.97457799683405   15.95719035870972    1.99950551064468
H         4.48607685271575   15.88602751420993    1.05122230072629
H         5.28981618317466   14.39215173298622    1.53664107470301
C         6.66506309320745   12.13769641546378    1.72356530270085
H         6.97614112460540   12.68185842595592    2.60481180958126
C        -0.84967458071716   12.76377456347801    5.64839461852746
H        -1.82583527861739   13.12930195205256    5.92834094209571
C         2.32047107060649    8.38546112352090    2.66174963776023
H         2.65666214078881    9.07584348606979    3.43203825901443
H         3.18809856610260    7.85793288946292    2.27111333815616
H         1.64977664651061    7.65816674353041    3.11772038078658
C         5.05551305209509   10.28590943506536    5.40238033897168
H         5.61372222126848    9.81416337880657    6.19750657433479
C         5.07075688742179   14.77646746438288    4.28524334345530
H         5.30452203464062   13.73162586422293    4.07752256789318
H         4.53113256353142   14.82179208892784    5.22820056123128
H         6.00382382656572   15.32771236069427    4.39186789699980

