24
CSD_code = DOQTEK | q = 0 | S = 0 | Stoichiometry = C6H10N2O5Pt | MND = 4
Pt        9.28945200668568    7.73874730766681    0.50446235741508
C        10.61892502682677    6.46942911318007    2.68891688846190
C        10.04945578691814    7.73858523826322    3.35231325517183
C         8.49629996592045    7.73861370897485    3.41900091530975
H         8.00527690632846    6.84472265261304    3.02613634795350
C         8.62498680216421    7.73895369492137    4.93805438639660
C        10.12580597651504    7.73863544773049    4.88653192759510
H        10.60223368891944    8.62550990857475    5.30476363220174
N         8.41690032452734    6.10592214938041   -0.53225363329845
H         7.42630951939899    5.93513674257685   -0.37658844897836
H         8.60513597761303    6.10145659548389   -1.53218303962260
H         8.94931641055682    5.34241538810565   -0.10527259101898
O        10.27428710499579    6.27423356644349    1.45666377742695
O        11.29270035353878    5.68694002930730    3.31861835270905
O         7.80470255841988    7.73937458530851    5.80901244939625
C        10.61900576695327    9.00776335389532    2.68904849942308
H         8.00510110563564    8.63218317258866    3.02561203755996
H        10.60187821719422    6.85158500021630    5.30479114478992
O        10.27445123008451    9.20307596770614    1.45679228407065
O        11.29281780025284    9.79015383232543    3.31882209491098
N         8.41747741799427    9.37146663381118   -0.53272205238222
H         7.42509643836412    9.53879238843118   -0.38493629080571
H         8.61398279260535    9.37842146874468   -1.53110198231152
H         8.94430082158726   10.13578205375053   -0.10028231237445

