121
CSD_code = DOQXOX | q = 0 | S = 0 | Stoichiometry = C47H70CrN2O | MND = 3
Cr        1.35302746359602    7.67221824003301    5.29994743296226
N         0.55623853260754    6.48836270876564    4.09330559590748
C        -0.36564211956869    5.51519039472739    4.12539680753209
C        -0.90629645982786    5.18391167700948    5.36631418499752
C        -0.59567893278150    5.78963015411916    6.58229829321849
N         0.28470619773139    6.80074047838569    6.56148560891521
C         1.43093932986872    6.69459731741982    3.01976948647976
C         2.47195545312651    5.76439829533216    2.78387909972425
C         3.30573938875589    5.95158903593290    1.69537582126187
C         3.12471332670872    7.01876083621512    0.83143926907750
C         2.12428178424859    7.93920407578887    1.07468013860166
C         1.26375735321631    7.79526654382579    2.15405403692326
C         0.13137529041649    8.77861787503751    2.35301248384412
C         0.68650630995358   10.15906386104811    2.70993979296005
C        -0.76735875216869    8.88925182649012    1.11748180325024
C         2.67027867812594    4.59988922398376    3.72956607866473
C         3.11701956988258    3.31552815922551    3.02915066339773
C         3.68055149189392    4.99120907685826    4.81105494963500
C        -0.98400087437062    4.78111807920382    2.91968692553540
C        -0.30827983139062    4.98988186162537    1.56195064180576
C        -0.99814376999237    3.26081414480840    3.16181133981410
C        -2.43061688483212    5.29209978052321    2.79054465104105
C        -1.23453624811636    5.13953708279889    7.82489061444407
C        -0.58486138813962    3.75182723559175    7.97593885662046
C        -2.75256330074105    4.97530937481850    7.62846853486234
C        -1.05441519379972    5.87137569682340    9.15741849220319
C         0.43437798253439    7.72232614057033    7.60470664228507
C         1.56901392444044    7.68683227740920    8.44153502331075
C         1.65862018156362    8.58915140423720    9.49227967264962
C         0.65317564508211    9.50413454987001    9.73546345019681
C        -0.44953875958037    9.55647199144419    8.89920345977671
C        -0.58502811200860    8.67641382730979    7.83985627568615
C        -1.78856041468772    8.73425438428650    6.92446439918101
C        -3.09036605822589    9.07710323535445    7.65076811804264
C        -1.52604267117064    9.74430991270146    5.80453346556372
C         2.65144272665274    6.64845352734125    8.24402470317359
C         3.96154925903555    7.32227668664548    7.83071881570243
C         2.88157469955106    5.80206682736524    9.49985881993460
O         2.49356696789707    8.92923330902591    5.26660740268590
C         3.38922331644783    9.91570758680206    5.24036137503565
C         3.13411211768281   11.13470094465580    5.90271305886853
C         4.07316455828562   12.15225575305277    5.84592772884562
C         5.27393989823096   11.99009264981316    5.18591170689705
C         5.53330557885775   10.79174361751643    4.55311996648174
C         4.60938769284715    9.75887338457841    4.55017616990257
C         4.93446465409014    8.48473949252145    3.80862580609801
C         6.07820961501321    7.73838974692816    4.50042406715743
C         5.31552256570232    8.78686203138299    2.35830382537429
C         1.85406905986460   11.35846954902901    6.67111350411379
C         0.98291450596229   12.40314133354188    5.96848843678061
H         1.51494611600327   13.34856861502670    5.88827951303523
H         0.07083698415424   12.57336958525653    6.53642772581480
H         0.71643184784129   12.07629680541175    4.96706040844271
C         2.15458840021872   11.81205083477573    8.10081038563337
H         2.64063897596420   12.78437362176466    8.10829225734422
H         2.80458138088748   11.09636257010119    8.59752860833785
H         1.23012309097287   11.89032581098460    8.66625871132425
H        -1.62779849597330    4.38962908978740    5.38749158535452
H         4.10199938418991    5.24925728033216    1.50244729758466
H         3.76599888001777    7.13244959094612   -0.03001649935705
H         1.99805614738891    8.77190901549504    0.39869791269666
H        -0.47947081841777    8.42216771665294    3.19066665920625
H         1.31647180585240   10.09139773091416    3.59434681985658
H        -0.12790812118664   10.85347799224817    2.90702205791852
H         1.28567674314515   10.55679731926982    1.89370645541506
H        -0.21481688319775    9.26739569711832    0.26099163660367
H        -1.58787286989275    9.57467367206156    1.32070756794264
H        -1.19012758649476    7.92385772868686    0.84949301773852
H         1.71545949143333    4.39905871084933    4.22622980782975
H         2.47546264665918    3.08815208580406    2.18031432654177
H         4.14241038435254    3.39157245137557    2.67537867980482
H         3.06832382159143    2.48240926177068    3.72778077682443
H         3.76568510944305    4.20078399575343    5.55371969121587
H         3.34818664694743    5.90759709254668    5.30191640742046
H         4.65989329645247    5.16044320300169    4.37108371143084
H        -0.24656768193552    6.03719710635469    1.29190053562141
H         0.69223373446204    4.56990445696028    1.54374668736620
H        -0.89895330665669    4.48261115969370    0.79899608874235
H        -0.00005378737018    2.90338948615915    3.40354074491167
H        -1.66879195905799    2.97479421048767    3.96624053633329
H        -1.33364259842612    2.75079659029516    2.26075734178870
H        -2.98835076516116    5.13431922449711    3.70953225324284
H        -2.94400718585087    4.77332837393012    1.98265127154313
H        -2.43264179391005    6.35821242524182    2.57283389114550
H        -0.71300083216858    3.15553703738752    7.07678529547626
H         0.48190182918079    3.85684688485243    8.16275329356602
H        -1.03081556853676    3.21517078452043    8.81164068008539
H        -3.20329846355681    4.61729438505538    8.55216121147262
H        -2.99499077025079    4.25920204949245    6.84939127045711
H        -3.21015848695003    5.92817201259848    7.37343359592218
H        -1.56698540885516    6.82798151973039    9.16244988558725
H        -0.01069722779203    6.03919412433295    9.39411385735498
H        -1.48193134714741    5.25748306991784    9.95026948683469
H         2.51774445062783    8.56344927177785   10.14613037645145
H         0.72786587583224   10.17881027879906   10.57540403327998
H        -1.21985961033170   10.28736529764262    9.09138171859027
H        -1.90998261223695    7.75021157964105    6.46016668435038
H        -3.23159877077796    8.44244278130212    8.52315782600612
H        -3.10382739467813   10.11519151917708    7.97411306504142
H        -3.93370104495618    8.92818610288008    6.97911271954084
H        -0.59539265581780    9.48679137613630    5.29580202028869
H        -2.34080446075386    9.73089484436954    5.08376984848007
H        -1.44053663226508   10.74815282110763    6.21224325548217
H         2.33294422971572    5.98134337040645    7.43448659708661
H         3.80940309338170    7.91604823965528    6.93181947452849
H         4.32147073055404    7.98093828454742    8.61820043995966
H         4.72565397222620    6.57237356690905    7.63535315124477
H         3.22804787022459    6.41384634563517   10.32907379231722
H         3.63714003427434    5.04518553826460    9.29841661631203
H         1.96919615944472    5.29706210781080    9.80833368681035
H         3.86452879913760   13.09169063929471    6.33455452881334
H         5.99969419222134   12.78921506411037    5.16465448198939
H         6.47493399133781   10.65983022686338    4.04250173489009
H         4.04102880685323    7.84777860527088    3.80492036086557
H         6.96938977182738    8.36098383168640    4.53764218070371
H         6.31986787178256    6.83124784481167    3.95085899697696
H         5.80744809491087    7.47011419567673    5.51794030634120
H         6.23490985923028    9.36469057627241    2.30825536614926
H         5.46773680915866    7.85858768275538    1.81465664383637
H         4.52576670026904    9.34973093417014    1.86754963976202
H         1.30711176230519   10.40842749350095    6.71831950643728

