73
CSD_code = DOQYIR | q = 1 | S = 0 | Stoichiometry = C30H36N2P3PtS(1+) | MND = 4
Pt        3.73883526250670    4.63909486938459    3.72078717347638
S         3.49847853754355    7.02921983784452    3.87099205689801
P         5.43333454529244    6.95396418434812    3.28571987637407
C         5.99094837486318    8.61849232264493    2.87468946820957
C         5.12737234610263    9.70187863939861    2.81802333571816
H         4.07669263936624    9.56781428930789    3.03637551344095
C         5.62763013852546   10.95231978560969    2.49870536712011
H         4.96339746786469   11.80234745424042    2.46067504767883
C         6.97761998025079   11.11229774160204    2.23306165220872
H         7.36370883832830   12.08953409987067    1.98626183844402
C         7.83712218459193   10.02488527410906    2.28741652205769
H         8.88885044865826   10.15574676181945    2.08280409486318
C         7.34570500199047    8.77409274459263    2.60745337045606
H         7.99619196987963    7.91330032603151    2.66928167394490
C         5.57224515556317    5.99872078089574    1.73035050727757
C         6.48524252217397    4.95423680344471    1.64009897218617
H         7.09065610797025    4.70889774964868    2.50202449835167
C         6.64197977070242    4.28480553371615    0.43789470477765
H         7.35974984846001    3.48185470421186    0.35361610377842
C         5.89355060772496    4.65871895917961   -0.66703999969892
H         6.02352626164134    4.13803515220171   -1.60346512534096
C         4.99688519755922    5.71340706714254   -0.58031500869195
H         4.43474572327042    6.01781794945662   -1.45048487471657
C         4.83981656720112    6.39071324488047    0.61482979938381
H         4.17460839884195    7.24029573290239    0.69125634635906
N         6.50548454035163    6.44486050779281    4.38939029258673
C         6.24463926744267    5.47628039731673    5.23879075287343
N         5.22304327500294    4.66144465948087    5.13991111796432
H         5.13623137291402    4.00307389089479    5.91026370389510
C         7.20978072222195    5.32058096635747    6.37922398648011
H         8.10453110394047    5.90251791767884    6.18219914500011
H         7.47410541440634    4.27550012884522    6.53027704075133
H         6.74796765761779    5.69528177058290    7.29182124330715
P         1.76554853999937    4.66033805031436    2.52087450175620
C         0.88907843770283    3.07424506081489    2.61517467171633
C         0.32825452179290    2.40762342776516    1.53595670499614
H         0.42680835683403    2.80091600865904    0.53621398610508
C        -0.35629225047948    1.22159829416663    1.74212126536953
H        -0.79136305363504    0.70358319911782    0.90125364455233
C        -0.49195873837963    0.70344244504519    3.01850443171946
H        -1.03412151613817   -0.21656297504497    3.17280516379491
C         0.06405916991475    1.36871290744924    4.10063506547661
H        -0.05358322924319    0.96980231369354    5.09765907636180
C         0.75704186550118    2.54646486482224    3.89703353303334
H         1.19617447209613    3.08830978796028    4.72964990037712
C         0.53670081284443    5.74225722754272    3.33531229830145
H         0.49835355163058    5.52508484645240    4.40146883487555
H        -0.44438795835076    5.56810355628546    2.89341324856097
H         0.82653820771486    6.78333078219168    3.20541741832989
C         1.62350988954159    5.21957079286864    0.79169213868769
H         2.22012446142672    4.60192930894889    0.12537609321908
H         1.97702740902684    6.24778720659778    0.74051729320138
H         0.57487680170670    5.18965021508736    0.49638680820506
P         4.19533176279869    2.36074927309020    3.59952852702993
C         3.52543032350696    1.53607977711177    2.13029947340252
C         3.66031545840276    2.24224690005381    0.93807555275430
H         4.11412004820794    3.22751683035866    0.96627223649329
C         3.23081821237803    1.68931117652033   -0.25225352153455
H         3.34604132903177    2.23450661864689   -1.17731258371430
C         2.65222277160550    0.42905732231122   -0.25497892360266
H         2.31217673876248   -0.00592766977732   -1.18202636546570
C         2.50953447472618   -0.27163883693500    0.93050662439619
H         2.05794763926973   -1.25173810783160    0.92634934862433
C         2.94734917757525    0.27490294245786    2.12527845505518
H         2.82976037288323   -0.28144972666731    3.04203329023994
C         3.74771416083432    1.31767506627150    5.03263948909134
H         4.10723652329879    1.78569672101700    5.94804079636611
H         4.21710706261015    0.33971405781859    4.92977255960309
H         2.66878225535574    1.20425344536556    5.09637069019643
C         5.97443332686770    1.96486578687716    3.41851860412324
H         6.54278761793823    2.38493304897980    4.24602623245249
H         6.34232772788108    2.37854594094283    2.48293106058026
H         6.09619601378555    0.88167986525185    3.40267217786332

