73
CSD_code = DORGIB | q = 0 | S = 0 | Stoichiometry = C38H28Cl2N2O2Ti | MND = 6
Ti       -2.56793985685727    3.87134449924203    5.36475052310168
Cl       -4.50520056870671    4.96771243882113    5.36282254901919
Cl       -1.76443021303063    4.75593857949432    3.48672621921444
O        -3.15103843109725    2.45620348341686    4.54299094463726
O        -1.83214268618988    5.01548376801881    6.44434402978473
N        -0.78105407536950    2.59930012371283    5.56980745193686
N        -3.07355308227047    2.90813482527245    7.28262145908345
C        -2.88984354658790    1.26091881726548    4.13226650034566
C        -3.82672839303275    0.53684723882232    3.34479568873477
C        -3.53251922772296   -0.76295715616267    2.97909499717404
C        -2.34247480233542   -1.38047994553409    3.36086082204350
C        -1.41999694448330   -0.69114296728320    4.10769593767814
C        -1.66602933602345    0.63375944089039    4.50122465111066
C        -0.68371879916386    1.35935627855825    5.24169993499821
C         0.24515862498887    3.21100449211577    6.30260670091955
C         0.62429400756661    2.72024087192722    7.55070549089859
C         1.57127894973480    3.39440409855096    8.30093885602865
C         2.16502190273517    4.54088641523532    7.80322710521122
C         1.81057038285049    5.01463179680686    6.54894160916921
C         0.84973105575797    4.36425093892668    5.79939896474111
C        -5.09125178480601    1.18832391178413    2.97020493509871
C        -6.28371853458304    0.46653073577062    2.99350616941629
C        -7.48364521465940    1.07934191189089    2.68594967145240
C        -7.51263910144662    2.42369029320305    2.35326366490391
C        -6.33238931360235    3.14682607668457    2.31398118471631
C        -5.12787728706888    2.53684634391447    2.61390544418443
C        -1.59600000743109    5.35133750586440    7.66789653273689
C        -0.94405716962036    6.57654485877873    7.97727162980913
C        -0.65312021111705    6.86667295755819    9.29674107886428
C        -0.98410782111382    5.99124100683439   10.32984491533078
C        -1.62911644253162    4.81212933984790   10.05090552285881
C        -1.95285791432806    4.47077039566611    8.72830309908183
C        -2.66089584804627    3.26231101572676    8.44825794859863
C        -3.75558203203067    1.69474493174662    7.12009818933125
C        -5.02037158801247    1.69615624447019    6.52929202618874
C        -5.66716037727776    0.49802323104163    6.29666722933806
C        -5.06220180047796   -0.70483906553930    6.62907726544502
C        -3.81144850135221   -0.70784413081891    7.22081091869448
C        -3.16244296382416    0.48611615220154    7.48037187984300
C        -0.57583240671029    7.48023989783484    6.87658420290912
C        -1.42447761060852    7.66653910904303    5.78485022927429
C        -1.04086697498102    8.47923576702463    4.73359759990669
C         0.18391521189634    9.12478274655407    4.75816032317511
C         1.02421382150155    8.96220593382758    5.84726002365678
C         0.64885988738083    8.14592154281592    6.89736766189542
H        -4.23687185995993   -1.30767126025035    2.36764305939261
H        -2.14642912266447   -2.39700458564599    3.05645225252446
H        -0.48733558991468   -1.15593258657133    4.39426049682012
H         0.22973363927423    0.80758828187396    5.50107910655418
H         0.14769655916338    1.83008829966814    7.94043510519881
H         1.84402541240691    3.02063896359669    9.27667913999226
H         2.90325649612423    5.06406656183134    8.39161253249260
H         2.27799759114586    5.90316652622386    6.15316317508706
H         0.55273419960600    4.73585891652733    4.82649464999282
H        -6.26876590650105   -0.57594495513967    3.27831053443755
H        -8.40091691878937    0.50827297436855    2.71372073238658
H        -8.45239105990962    2.90432327973974    2.12466169348583
H        -6.34615290132334    4.19403742441904    2.05274644319063
H        -4.21186951241230    3.11240974163025    2.55359804515603
H        -0.17141375270732    7.80402392873740    9.53344482769016
H        -0.74139920620845    6.25103997645710   11.34868285519294
H        -1.90475696860738    4.13526170338998   10.84708837458096
H        -2.89342840308324    2.62772995803283    9.31390164385152
H        -5.47611186385475    2.64014097695823    6.25719359252331
H        -6.64647314372798    0.50502284131193    5.84337707964134
H        -5.56506164941143   -1.63835523946552    6.42772237813432
H        -3.33608799552063   -1.64152326489602    7.48242014636686
H        -2.17853859952585    0.48895710914040    7.93124884913994
H        -2.39686562853524    7.18929300596024    5.75939717893692
H        -1.70275687958315    8.60322115662450    3.89005596596596
H         0.48351256342663    9.75354711551554    3.93277603150221
H         1.97946501269376    9.46720144772309    5.87445743604194
H         1.31869251246319    8.00105495042742    7.73308689117216

