62
CSD_code = DORHEY | q = 0 | S = 0 | Stoichiometry = C26H31FeO2PSi | MND = 8
Fe        0.82522140655537    3.77707780407624    1.34039693474744
P         1.17727718724869    3.92239918683271    3.53220545965781
Si        1.27346088386945    6.00226854009882    4.38109365092159
C         1.91152084991445    5.09909337033541    1.03788792987148
O         2.56421180212675    6.00454270551873    0.76311830271364
C        -0.43126351946254    4.96718491182682    1.12952913466687
O        -1.19342354000603    5.76324322327222    0.80203615278357
C         0.90861322611553    1.43995445547049    1.62965128388049
C        -0.26830935568682    1.84961582450702    0.93981309433428
C         0.13530787145916    2.47551673888379   -0.28635331009857
C         1.55907753970204    2.52586546811466   -0.30650750331383
C         2.03269586083507    1.91602282528603    0.90030392568382
C         0.99405783728195    0.63838817405476    2.88117893440154
H         1.59633478549802   -0.25418832207819    2.71209615327827
H         0.00836695388027    0.34096687502339    3.22816400891927
H         1.47303335889843    1.22282981443007    3.67211420604957
C        -1.66391741824054    1.41508819548670    1.26622127880176
H        -1.84967795411285    0.42055059317461    0.85560898250425
H        -2.39339728878752    2.09936883197444    0.84007913075202
H        -1.82071336490538    1.37968534567301    2.34189066905149
C        -0.77056871579268    2.82223877465319   -1.42612721582277
H        -0.34247342148923    3.61203087160830   -2.03836548095968
H        -1.74125552834891    3.15662837376195   -1.06833100713062
H        -0.92426340463036    1.94476523846672   -2.05719448537635
C         2.40379210434064    2.92547904342486   -1.47663738219968
H         2.53853580995362    2.07117138172267   -2.14282079446101
H         3.38508298809846    3.26378950003488   -1.15385258094181
H         1.93530251354297    3.72738090391167   -2.04198920688236
C         3.45370435277056    1.61362315114551    1.25444168222505
H         3.61008350377693    1.74423863994438    2.32329207984610
H         4.13839602621601    2.26925359711793    0.72340355490874
H         3.69562190213071    0.58082304687016    0.99661129823214
C        -0.37211461890259    3.45237783730023    4.36617295412397
C        -1.63268601359578    3.65567532404108    3.81604741231218
H        -1.71204148636444    4.11671684362752    2.84156457079776
C        -2.77077024124292    3.27745293171819    4.50404765777888
H        -3.74388294042899    3.44647367822675    4.06456697927983
C        -2.66771296947543    2.68510959713064    5.75212943697777
H        -3.55785454807037    2.38919201718979    6.28787777981269
C        -1.41620433309424    2.47061617927931    6.30693805335105
H        -1.32854103207973    2.00477945887156    7.27832657459892
C        -0.27933417484166    2.84696927941537    5.61786243820409
H         0.69943020630922    2.67901373311370    6.04593140586705
C         0.91369421773970    5.93779237894354    6.25837896099381
H         1.63147603396021    5.29991167079351    6.76361564564948
H        -0.07619120812751    5.54309420668781    6.46039027131466
H         0.97728120155284    6.92721201643038    6.69952190619583
C         3.05958560008310    6.62957920572321    4.14746244269819
H         3.16689352621482    7.64184959402660    4.52218273526552
H         3.35181327596238    6.62531255157787    3.10410167558845
H         3.75826452335551    5.99786164785113    4.68604940298450
C         0.00951825414103    7.14179503526855    3.53786550819243
C        -1.34147047552484    7.05222760273919    3.86365707669557
H        -1.65365555813071    6.37521721016513    4.64592494001928
C        -2.28847792507526    7.80899519923060    3.19932317356112
H        -3.33281302872115    7.71986335287932    3.46414384340034
C        -1.90053133683416    8.67533828716449    2.19145960120910
H        -2.63954782697405    9.26280465972066    1.66577926074946
C        -0.56099328287604    8.78222877619448    1.85867325751969
H        -0.25157538586779    9.45632347844612    1.07249194087608
C         0.38132777360067    8.02053181111442    2.52491891373372
H         1.42307852055521    8.10638735050217    2.25463529920408

