49
CSD_code = DORMIH | q = 0 | S = 0 | Stoichiometry = C18H20FeO10 | MND = 7
Fe        6.08407630170769    7.38224306082912   17.56067616386310
O         7.98648183139305   11.44399695640580   17.87174140789497
C         8.74177920539583   12.03581504964826   16.85443611192749
H         8.21459278156415   12.92022111357588   16.48160419319561
C         8.90454723963331   10.95923660340770   15.75570043786183
C         8.98458475003878    9.69236040938171   16.61248770094440
H        10.01870631032459    9.55562849880752   16.93221992203535
H         8.65528473772210    8.80385055773487   16.07717686415098
C         8.07811944867237   10.01656305065590   17.80996572889796
H         8.52430782882638    9.65751971536347   18.74528614263711
C         6.66701680645223    9.48031826148073   17.65552355181649
H         6.13320057282554   10.05510836688026   16.89968881560202
C         5.94633627060559    9.15129215190280   18.84370374491000
H         6.39789097906034    9.28047229122460   19.82083877342065
C         4.67652851891792    8.57180264252788   18.70879759850324
H         4.12584228509517    8.24132247341646   19.58332405500762
C         4.17798961928115    8.35513304314480   17.38922095324200
H         4.21617295058555    9.18178786800033   16.68778442297476
H         3.23897516574502    7.81674210531808   17.31868259269699
C        10.13463182195879   12.42866767876731   17.36341325171763
O        10.68543632438076   13.33030674197090   16.55288361196328
C        12.03630273143192   13.71648019980437   16.84354070566711
H        12.69792683661131   12.91564934846954   16.49419105910635
H        12.14825126060302   13.80804541019299   17.92853489195474
C        12.32729725511354   15.02779138936706   16.13914285915081
H        12.17501096259271   14.92366422072657   15.06814552653482
H        13.35691979990077   15.31892629878849   16.32535169196105
H        11.66537487787181   15.80660738676839   16.50781367882320
O        10.65660181674510   11.97050366486262   18.33964425048633
C         7.69985890597547   10.95476893663269   14.81708908362841
O         7.77465211415785    9.92004123563989   13.98380111341743
C         6.73796796063812    9.81277976755007   13.01416581345793
H         5.76090920931336    9.90573244857879   13.49134706084175
H         6.85005030396536    8.83315402442593   12.55799441284839
H         6.84368496805124   10.60126137876519   12.26681009808034
O         6.81359175751602   11.76352394872805   14.81819985934258
C        10.16063424957781   11.19300658181719   14.92227590296941
O         9.89274613764215   11.99388520233859   13.89605212667606
C        10.98902713866510   12.33299981151740   13.05340299889492
H        11.84949974584234   12.62540386607887   13.65684564399061
H        10.65126435561031   13.15951823020701   12.43384473951342
H        11.26381828439092   11.47702469174200   12.43409488218995
O        11.24151803901988   10.73279742598170   15.16490347936475
C         5.42171908526027    5.78379431039489   17.89631600459429
O         5.02731574154922    4.72042166392693   18.05569978203923
C         7.64995240669213    6.77096970031383   18.08875571207062
O         8.67246934325327    6.33944423424856   18.37077943572768
C         6.24930571654310    7.28456330085867   15.78357567664985
O         6.33712724525132    7.15795268083610   14.65032546474837

