43
CSD_code = DORNED | q = 0 | S = 0 | Stoichiometry = C12H23N4O3Tc | MND = 5
Tc       -2.40717342435558    0.88669108850191    2.30821515805316
O        -1.38022338550735    3.69268073248173    2.06853714172635
O         0.28814497011301    2.11693823623432    2.95148146349945
O        -3.15384616991213    0.76323620753275    3.77080024153366
N        -2.30759479732097    2.86292412465746    1.65980871814180
N        -0.34845748904187    0.99461850453726    2.58221508695880
N        -3.71736250990434    0.94603240579793    0.91660328600967
N        -1.77627400888572   -0.80588587768125    1.64228281695741
C        -3.27370270075820    3.27836945906110    0.92206411550826
C         0.29785494680422   -0.10878880654008    2.58284243135755
C        -4.27639849868231    2.23251470910994    0.55149990001829
C        -0.49294015266296   -1.30546989179462    2.12579778207790
C        -3.41103356578650    4.70355095611046    0.50384636288519
C         1.72547851532310   -0.17548300497299    3.00529001197188
C        -5.58627900792635    2.51799338307168    1.31195396355727
C         0.30334786613380   -2.03568408973900    1.03040978453283
C        -0.70153932822651   -2.21952264520153    3.35211822347924
C        -4.36568109762132   -0.16321769590802    0.25653903889380
C        -2.55649325187435   -1.78865683316925    0.91684846801421
C        -4.04702654544228   -1.47210209489074    0.96469670519883
H        -0.39376720459792    2.93634634351105    2.63597446925503
H        -4.47280108368074    2.26959862620254   -0.53201318489033
H        -3.87196810543813    5.28350705485970    1.30411610985435
H        -4.01394467731049    4.79351079402312   -0.39559124873160
H        -2.41730402437201    5.11889974223801    0.33818679905032
H         2.02856106839914   -1.18293109125763    3.27070760980528
H         2.36193588921666    0.18893280805226    2.19779952194966
H         1.87002040425936    0.49364444197133    3.85325538341150
H        -5.93815692691925    3.52431681851771    1.10277526486461
H        -5.39315801067053    2.41011056470733    2.37793234226559
H        -6.35925523662860    1.81140307238171    1.02257041167032
H         0.39445083534461   -1.39736934023108    0.15432137430378
H        -0.19191251966330   -2.95784363855523    0.74203679481312
H         1.29857682956169   -2.28370038318638    1.38742257501750
H        -1.21291275915244   -3.13345987260425    3.06295493683523
H        -1.31609312120026   -1.68911739428869    4.07790182229101
H         0.24781238361747   -2.48769959264581    3.80696027111735
H        -5.45404906211894   -0.02180832349661    0.25761986693833
H        -4.03806553219407   -0.21890045152666   -0.79385778451005
H        -2.23409900287810   -1.82625806840564   -0.13417819285666
H        -2.41400056334663   -2.78555332524972    1.34930642951501
H        -4.35118922747044   -1.38226691503286    2.00954030430281
H        -4.60248071722163   -2.28530073718224    0.49480742335113

