40
CSD_code = DORNIH | q = 0 | S = 0 | Stoichiometry = C11H21N4O3Tc | MND = 5
Tc       -1.03599799174513    1.01257740840109   -1.89273284703129
O        -1.34761449872144   -0.76972875836562    0.48885271838778
O        -0.61250651782574    1.50286351617427    1.09362325439958
O         0.46925456780873    0.71928980550030   -2.49258473662234
N        -1.69970604800311   -0.59595201793259   -0.75902176917131
N        -0.91564496218610    2.07329824809036   -0.08324115928176
N        -2.36102731301909    0.22225589539996   -3.02173034599351
N        -1.72226263274428    2.74937703674355   -2.33917010124141
C        -2.38911424034522   -1.48892060078235   -1.37413228149297
C        -1.00866340339502    3.34689063998076   -0.14858544820389
C        -2.70034510014145   -1.17031624453157   -2.80205586407633
C        -1.32573986106115    3.87096718995118   -1.51292260126291
C        -2.80832406339575   -2.76533271362154   -0.72631093623172
C        -0.77453408807997    4.23830771422818    1.02099528353524
C        -1.87138105653201   -2.10380231938911   -3.70556810331424
C        -0.06306881869856    4.56618130861648   -2.06164898414286
C        -2.99503171154956    0.77976204949225   -4.19493420092452
C        -2.43841857577957    3.14649674648089   -3.53162154919200
C        -2.32859511518230    2.08247997299151   -4.61675034171099
H        -3.77168273440679   -1.33670789443539   -2.99684188560328
H        -2.14298026849597    4.60618836993437   -1.44584081579927
H        -3.64764738686172   -3.21627683712894   -1.24855812445581
H        -3.07179303483524   -2.56330331821873    0.31192331859400
H        -1.97318905810606   -3.46662744181402   -0.71286563754560
H         0.29606601060588    4.31515251736460    1.21340150171241
H        -1.22396683884085    3.78880142562749    1.90615040479278
H        -1.18241327657627    5.23068529435993    0.85263159852645
H        -0.81769800076604   -1.87071565367000   -3.56105485102694
H        -2.12468254436769   -1.95039788933075   -4.75094137447719
H        -2.05518160760167   -3.14391690193627   -3.45133579258703
H         0.71810264893915    3.81640678500170   -2.17599722992068
H         0.27250744614616    5.34758972909514   -1.38540811727369
H        -0.26561215894552    5.00868460892366   -3.03294132947013
H        -2.93182807741316    0.07171193957342   -5.03125496736953
H        -4.06261686064110    0.95966206925299   -3.99071874638344
H        -3.49934235693908    3.31960499264886   -3.29041266134041
H        -2.03106639040030    4.08618327602137   -3.92543027926383
H        -2.79239590820148    2.44725250701057   -5.53443420382812
H        -1.27026923125403    1.88533017831762   -4.79889174007571
H        -0.86258894044345    0.43669736597376    0.95046094636816

