31
CSD_code = DORPIJ | q = -1 | S = 0 | Stoichiometry = C12H9FeN6S3(1-) | MND = 6
Fe        1.46928372566648   -1.58792729439703    3.82441787827666
S         0.18018092748627   -3.08621803231743    5.11448860290951
S         2.90195281921741    0.22178942003814    3.28714845580655
S         2.03391933717157   -3.13020707786427    2.10942088739146
N         2.05791826016897   -3.90517417759908    6.85709268082646
N         2.55913406262577   -2.27248641949611    5.19519559296656
N         0.89345847400030   -0.06832052225924    4.76859169944030
N         1.74912716999786    2.15695490506454    4.76114914979912
N         0.30691997044878   -1.31185392924986    2.37338094236260
N         0.17325271953299   -2.46963615817946    0.29281379299955
C         1.71779752189505   -3.14109569367200    5.83069334286922
C         3.31389198032370   -3.81989197667648    7.26910079872054
H         3.56877327235442   -4.45001931513413    8.11320150353956
C         4.25093134855145   -2.98730929850099    6.67274571660034
H         5.27149089645458   -2.93914962558820    7.01626038553303
C         3.81253452785932   -2.21000605709163    5.60748345352625
H         4.45873048228282   -1.52470498136707    5.07525816979214
C         1.77686606946322    0.89365404150112    4.36375098466194
C         0.78538542715402    2.49361181276321    5.60651946722362
H         0.78568604403990    3.53038977036991    5.92191275692075
C        -0.16715921691923    1.59339702779407    6.06425098882039
H        -0.94762009079588    1.88682234499760    6.74769124996945
C        -0.06871083104093    0.28530013258960    5.60337066116427
H        -0.75836131737114   -0.49436354582682    5.89966287609382
C         0.72279296013383   -2.26256740098430    1.48060134703704
C        -0.72184708919472   -0.55677560947576    2.03289773971310
H        -1.03996651785047    0.18547891735369    2.75499411788623
C        -1.35425551473974   -0.71408335328427    0.80581794997377
H        -2.19247348774764   -0.09655674273641    0.52611119053769
C        -0.85063912015351   -1.69789124515645   -0.03433730332519
H        -1.27929481101453   -1.88335991561452   -1.01218708003726

