54
CSD_code = DORROR | q = 0 | S = 0 | Stoichiometry = C24H22O6PRh | MND = 4
Rh        9.35839622657966    4.64728385511339    9.95611748258854
P         7.38626220001102    3.65821231224864   10.32872380896976
C        11.10482705111849    1.46875160415209    7.60415119621136
H        10.18671096586080    0.90218655948801    7.73927971589648
H        11.93471968291004    0.90967605998750    8.03061609121165
H        11.29603534098851    1.60676631685693    6.54205496820531
C        10.98160949563740    2.81132755249569    8.29132546771550
C        12.06959495315268    3.67768839689417    8.23140655838524
H        12.94664738134593    3.35566701146587    7.69220932499743
C        12.09353230320401    4.94338930034810    8.83136230562899
C        13.34980823846670    5.76857017754823    8.64885191113109
H        13.23068896487113    6.72851303837258    9.14396544880071
H        13.54259734887221    5.92732268705683    7.59018132228237
H        14.20239175220269    5.24519881030750    9.07620511341660
O         9.87819428487980    3.04669162808975    8.86810014884726
O        11.17388375865426    5.46696506072221    9.51367206737775
C         8.80375104088343    6.06721877476448   10.96126288289749
O         8.34181374869326    6.91692302754078   11.58094095968297
O         6.83624429649976    3.67587213869974   11.84789536900454
C         5.56109627183627    3.21840125554568   12.15113652421234
C         5.35132277837124    1.87733362819173   12.43461105815320
H         6.18127111596495    1.18761670933288   12.39285616411084
C         4.08168059549748    1.44331377410279   12.77495892781084
H         3.91742493410095    0.39904902806019   12.99493401173040
C         3.02818192534932    2.33969412566888   12.83012803145726
H         2.03902850847683    1.99587267119203   13.09260232080442
C         3.24548120561728    3.67824527571616   12.54902847387883
H         2.42678385658249    4.38084468523374   12.59346151710782
C         4.51043795428991    4.12146261982064   12.20647366202246
H         4.70243091418628    5.16030932054855   11.98701180855698
O         6.12596850735179    4.28594934819365    9.54403464252118
C         6.31640712643794    5.34547413849495    8.68119276286229
C         7.35526880219503    5.35021961458157    7.75642455821124
H         7.98330338016089    4.47177694787090    7.65073099563313
C         7.51842872717633    6.44543398993847    6.92164389587005
H         8.32442392063220    6.45045892211416    6.20364676219719
C         6.65255265504219    7.52253857476546    7.00235439775702
H         6.78800194842387    8.37528750426563    6.35481513794754
C         5.60560321473075    7.49943956519950    7.90823875688747
H         4.92104145864468    8.33193177418323    7.96709593001309
C         5.43685605060300    6.41607065495785    8.75271041693807
H         4.63178875869344    6.38809045777338    9.47032298761127
O         7.10452687612214    2.13949683769306    9.85797169532112
C         8.00610895801162    1.13025774330754   10.09110149107146
C         9.01308265790044    1.23042884696746   11.04119139343035
H         9.10937706242833    2.13829855891202   11.62592184087774
C         9.89084029742076    0.17508269723176   11.21990895087335
H        10.68019839150729    0.26002138551208   11.95155088163371
C         9.76063530900137   -0.98144496729117   10.46988076376445
H        10.44819436704310   -1.80106005216938   10.61372590943986
C         8.74447573739454   -1.08297750846815    9.53413623073059
H         8.63653322664391   -1.98224816899769    8.94614606829710
C         7.86762064536841   -0.03085090926943    9.34019618802174
H         7.07591282590476   -0.08794336140254    8.60933269899612

