49
CSD_code = DORTIQ | q = 0 | S = 0 | Stoichiometry = C23H15N6O4Re | MND = 6
Re        6.12175201882476    8.30000363493802    9.24256191824868
C         6.70247860068808    9.77414662047708   10.37976200246526
O         6.97743669899909   10.66876496589069   11.04027640514246
C         6.62618412169881    6.93689309713735   10.54345210484908
O         6.88377488271515    6.11116181140962   11.29462245541532
C         7.85327253251327    8.26168610953692    8.33515664005705
O         8.83401776819005    8.21957697101575    7.75100167474347
N         5.13733609557359    6.89108574639380    7.89397386426184
C         3.79427942564616    7.03509049876607    7.90180024411385
C         2.96670542072355    6.51305989575935    6.88659441071878
C         3.58672245054262    5.80109192207338    5.84797917474678
H         2.98744449274619    5.40220069087314    5.04328337172693
C         4.95100567140868    5.63769968934324    5.87316296186074
H         5.46419188527244    5.09996044120775    5.09250644473113
C         5.69004000713459    6.20447174165029    6.91216767752984
H         6.76737513748634    6.10919506146993    6.93509002579389
C         1.56416020037322    6.75471772534202    6.94209234288886
H         0.95271963761966    6.36591587340204    6.14168970799519
N         4.05354802872037    8.32412352379132    9.88965583321223
C         3.21486249354444    7.79435151355621    8.97130295098038
C         1.81989295524196    7.99295807738777    9.00587792904581
C         1.29814787807162    8.75569079907796   10.06283571598784
H         0.23775844196261    8.95365241214362   10.10508951418822
C         2.16045884628216    9.25245230389548   11.01017391364321
H         1.80081287768533    9.84373262668572   11.83701275142866
C         3.53075447505225    9.01896620882007   10.88165516134604
H         4.22404876837314    9.42606854837700   11.60609462797098
C         1.01514055072013    7.46091927388766    7.95868418416616
H        -0.04652477963520    7.65333220689127    7.99106911182523
N         4.13230577838070   10.06730481984074    7.83365982133357
N         5.34040240765360    9.54177764643521    7.75075543295385
N         5.71514494681981    9.43165126604342    6.50117697951211
N         4.76570942885443    9.88018042631657    5.73387333187915
C         3.77979946185836   10.27160646479892    6.56081741078813
C         2.47216390682313   10.73356709521178    6.15055160366214
C         1.47952975827598   10.90314652524640    7.10508435766621
H         1.70054900310226   10.75331946561550    8.15004940286205
C         0.19297884607448   11.27281097688957    6.72781974272782
C        -0.08858511377209   11.49311510931535    5.38450575260364
H        -1.07491189113963   11.78813016785393    5.06186082726928
C         0.91364863938662   11.33456910005864    4.43764908140168
H         0.68368721230424   11.51315863787476    3.39717351791115
C         2.18601329901962   10.94995698247164    4.80371489788940
H         2.96722776461319   10.81396116621893    4.07275357956662
O        -0.71545419828159   11.37396822552252    7.74719460743176
C        -2.01634675936832   11.81094732580677    7.44078318230652
H        -2.01069407482874   12.80712955940261    6.98731930905543
H        -2.54612125368770   11.85329066763705    8.39159810128029
H        -2.53064474631078   11.11173838024824    6.77233393878043

