83
CSD_code = DOSFUO | q = 0 | S = 0 | Stoichiometry = C32H47AuN2S | MND = 2
Au        0.88958754292134    1.36876772559597    4.09786817925113
S        -1.28275495377548    0.96278541101483    4.70031253719974
N         3.60763122847765    2.56987889846276    3.95770969034479
N         3.35749015432501    0.70409429591408    2.66967818699644
C         2.36761333111848   -1.51362080050839    2.92321782379738
C         1.85177197298300   -0.17147223864968    0.96511913488857
C         4.72139434049130    0.75347050837824    2.16912689593838
C         2.51812707330376   -0.34354106225340    2.17878320882240
C         3.21864688655364    3.28434807810374    6.25730135325943
C         1.53372868158829   -2.50715959579762    2.43462705829209
C        -4.81297445034804   -2.32906034345566   11.96175208382942
C        -4.81441890364025   -2.17492356634965    8.79911547875735
C         4.99362736620604    2.76713905305735    3.56373925413741
C        -3.72597042839520   -0.99245403916974    5.24953774263268
C         2.19767933781350    4.83108434126578    2.94056003335545
C         1.02892765299482   -1.18943743400504    0.50921619047280
C         0.85597259109654   -2.36068454610175    1.23241802910139
C         3.06454351751755    3.50577289870952    4.89027114157369
C         2.39595924448321    4.63305721981784    4.41256408888945
C         3.92578790322909    2.06497626891442    6.76751674624394
C         2.69693137692983    4.21633222641856    7.14175675324330
C        -4.84201131767285   -1.39241637516487    7.48814888324167
C        -4.97550355874912   -3.07917749867482   13.27848173311159
C         3.03875679714881   -1.67052012607713    4.25363873104935
C         1.88980146622447    5.54137762032111    5.32748738976890
C        -3.71567508697251   -1.80740680794537    6.54637919923938
C        -2.61094726591415   -1.39771584529881    4.34154795539877
C        -6.00059152918238   -2.56326554992961   11.03046745092088
C        -5.93515170893943   -1.74238175985189    9.74206020833123
C        -1.54422689799097   -0.65055076417797    4.07122678663262
C         1.44524062010275    6.32463599333767    7.66586799020680
C        -0.08300682067032   -3.42365533926315    0.75423124267106
C         1.99518108389530    1.10194596122181    0.18682799539508
C         2.83861852533182    1.58893146735844    3.51060027817660
C         2.03254086805899    5.34837214767840    6.69459263992855
C         5.20133156149958    2.19933024467866    2.16513997064302
H        -0.76898463499625   -1.01692375582412    3.41185574230344
H        -2.67770799924261   -2.38673946172834    3.90300953402461
H        -3.61357953996637    0.06601470125029    5.48661598591706
H        -4.68650506897607   -1.13509834494614    4.74393919851269
H        -2.75376511433280   -1.66047179432553    7.04266161972978
H        -3.80941888602011   -2.87117627399222    6.30949284029727
H        -4.75029402798901   -0.32531152892754    7.70305556084615
H        -5.80413914286957   -1.54776260935031    6.99263138951149
H        -3.84659174195397   -2.02119467187274    9.27943540868732
H        -4.91461625381547   -3.24246589498439    8.58581432320402
H        -5.80646182213750   -0.68681273606920    9.99340069956602
H        -6.88917059493579   -1.84043605743711    9.21716136975525
H        -6.91807136322935   -2.30249924197098   11.56511784305120
H        -6.05735777380548   -3.62533578971315   10.77903076472417
H        -4.72025330443204   -1.25919478450245   12.16291994182870
H        -3.89318285422731   -2.65736487436806   11.47544309835127
H        -5.87235969940325   -2.74885712917005   13.79877489352899
H        -4.11963218927836   -2.90694456039987   13.92750241074146
H        -5.06025623509412   -4.14909679701750   13.09936470550217
H         3.61000383437437    1.84304901202084    7.78321565976815
H         5.00501267304543    2.22424005226002    6.77636805922239
H         3.70958237743857    1.20248748911811    6.14011578531340
H         2.80449409719845    4.04866047447166    8.20368330321761
H         1.98694206490343    6.31170857540515    8.60850049075113
H         0.40777970269444    6.05780146919868    7.86794113801027
H         1.45965149975038    7.33370110404018    7.26063511181671
H         1.36380568874098    6.41367696819230    4.96747444811381
H         1.72072822844909    5.78716440081646    2.74439595834277
H         3.14509727713325    4.79823344811541    2.40374258336753
H         1.55732840133079    4.03923752510054    2.54990172355590
H         2.52217672828273   -1.05708514228151    4.99418521040757
H         4.07928551285547   -1.35324739927360    4.21815688164797
H         2.99941136107229   -2.70579075844572    4.58128151986513
H         1.39574301439397   -3.40875419220220    3.01381339208688
H        -1.07022020859777   -3.25414882029876    1.18542656433386
H        -0.17917961343272   -3.40270056795760   -0.32862222267720
H         0.25420520761945   -4.41008500677418    1.06396983361506
H         1.92361442894271    1.96262044200106    0.85040002719090
H         1.21275420731788    1.17672120262479   -0.56327583736476
H         2.95896311097122    1.14239761624435   -0.32248261066927
H         4.73972527338693    0.32643429706873    1.16364318073166
H         5.37628114885900    0.14282271286652    2.80432299286189
H         4.61379305335868    2.77409824915760    1.44601666710457
H         6.25153381628650    2.25498981186637    1.88023587356474
H         5.21292383350262    3.83776749214922    3.59371740476395
H         5.66050437142824    2.26581102383417    4.27622232473101
H         0.49714895332534   -1.05779654129315   -0.42210285966394

