121
CSD_code = DOSHIF | q = 0 | S = 0 | Stoichiometry = C45H53BF15N3NiOP2 | MND = 4
B         1.77698953042795    3.43043541011076    6.00967258340834
C         4.09840820568423    8.54923563599200    3.52465498382667
C         4.39478839891895    9.92186537923538    2.96052556132124
C         3.25317020243345   10.47208844301382    2.17902146155515
H         3.45988998237071   11.38469378480698    1.64100816182937
C         2.05231807542865    9.90029005514014    2.14283164127944
C         1.81211344562195    8.69663009726709    2.94522255836568
C         5.64210474818044    9.85790872889518    2.05461540856550
H         6.45572420449675    9.40716476257009    2.62297652630281
H         5.93274786573724   10.87660231550883    1.79015965183778
C         5.39219053609789    9.05658793374679    0.78235199416846
H         5.04450360266843    8.05448438074984    1.02236131628840
H         6.30949315811514    8.97359529842657    0.20441390715350
H         4.63765602704293    9.53618497720404    0.16275483028310
C         4.69309340852163   10.85638319643730    4.16060676027206
H         5.57106734216881   10.46690894575827    4.67828715269858
H         4.93945928928314   11.84596691785945    3.76978624210037
C         3.52754591907037   10.97171851840492    5.13466764400638
H         2.65070808242637   11.38444128932993    4.63978581827808
H         3.79624526481033   11.62776838723257    5.95904544081659
H         3.26539686860361    9.99904917525549    5.54463775542181
C         0.87131708552445   10.40760258659805    1.36501633615056
H         0.07549664029159   10.64790149713564    2.07474897569652
H         0.49932288501872    9.58489642890106    0.74939476745685
C         1.15479539314443   11.61838071410202    0.48759336023536
H         1.45961824519222   12.47291437175197    1.08708548304186
H         0.25461126868227   11.89183371554202   -0.05708734981320
H         1.93623976371128   11.39923043440669   -0.23630664063701
C         5.70735798050230    6.56884240394550    6.25605053117741
C         5.08283693203716    7.79835597199862    6.92143360988858
H         5.41724468315500    7.87831905733368    7.95394819422254
H         3.99582249392775    7.73631860811320    6.91886830363199
H         5.37595272538197    8.70166308399038    6.39244044385837
C         5.50924597768472    5.34905169108281    7.14724233240011
H         5.96622129604852    4.46000862283819    6.72085164646562
H         4.45111126130067    5.15933813714405    7.29482333282002
H         5.96370607414843    5.52690797660777    8.12094635745557
C         7.18923247237145    6.83347068363463    6.01666510962485
H         7.64421779834820    7.18430534689059    6.94230017363316
H         7.31677217821275    7.60165791271587    5.25811378703828
H         7.71290435050476    5.93161860308024    5.71134012857433
C         5.67535819781856    5.26753848781924    3.37541644596229
C         4.62837280715317    5.03617102097221    2.27854663679725
H         5.08456651583484    4.56966763943175    1.40673234389757
H         4.18511023669079    5.98338779426977    1.96308935358352
H         3.83096128653525    4.37980718249735    2.62514263617525
C         6.07163700799979    3.93579916241630    3.99939985453241
H         5.26143076334444    3.54818676785447    4.60685774490594
H         6.95621034175743    4.03753439724739    4.62339398245476
H         6.29445557014786    3.20792415234244    3.22061964746790
C         6.89396210801905    5.94901269267421    2.76007874116287
H         7.26591831090328    5.33755135576392    1.93876763392101
H         7.69632854556013    6.06643298694337    3.48010230730104
H         6.63394756954491    6.92838664733670    2.37157725636318
C        -0.84467966827802    7.87374069686439    5.23118618964368
C        -1.79732481709202    8.83273432882567    4.52250317859383
H        -2.26073536234792    9.48155391889641    5.26470289038300
H        -2.58625867699745    8.30477447640460    3.99744070477053
H        -1.25997584306298    9.45010416786635    3.80846663010206
C        -1.64135642392288    6.88267280467841    6.07364292613909
H        -1.03600491901939    6.02537409916090    6.35244892468453
H        -2.50865155503791    6.52493582823979    5.52417360989855
H        -2.00214244763717    7.36439643618268    6.98156685256433
C         0.11696859981281    8.70015921111205    6.09309451445557
H         0.51256769418682    9.53255205532252    5.51225479565722
H         0.96470878991750    8.10561631443866    6.43139509929190
H        -0.39032679172046    9.10637560611258    6.96632584576063
C        -0.57929932822115    5.80172396330860    2.86407836739415
C        -1.71459417709518    6.47468237369601    2.10271105526168
H        -1.97647381935689    5.86755542189830    1.23716544174495
H        -1.40983793056851    7.45953924807554    1.75758101303906
H        -2.60348745395043    6.57295920792283    2.71984837768397
C        -1.07581211852248    4.57924594361622    3.62836960506446
H        -1.98159072246495    4.80145180721334    4.18570917931899
H        -0.31966352323978    4.23499571826887    4.32840719180812
H        -1.30073301183550    3.77208811242730    2.93343393414428
C         0.53319534083504    5.41343746814852    1.88489181974410
H         0.24319739670947    4.55481992736925    1.28394637353932
H         1.44609093290152    5.15386401012141    2.43104216730736
H         0.75648107809227    6.24762684799534    1.22141440168785
C         1.10130477079853    2.04051426936639    5.41298696048920
C         0.88977622531781    1.76290529419770    4.06841412441697
C         0.36333756845844    0.56116332220416    3.60677978010530
C         0.05322698509317   -0.44647197045589    4.50755849661573
C         0.30343658347799   -0.23348437528972    5.85828339700907
C         0.82401042857131    0.98337241548779    6.27775347919541
C         3.09189494692262    2.81289793666324    6.84547897605584
C         3.97278488122636    1.99583381305467    6.14301377313432
C         5.07027994423830    1.36271018503495    6.71074010680779
C         5.31940353057503    1.52378112817964    8.06745631195091
C         4.45375061689425    2.31075938957263    8.81492059176550
C         3.36736579023129    2.93097062520056    8.20286099612676
C         0.81406389106716    4.25484322160128    7.04869928170672
C         1.23824633179027    5.50309625081061    7.49299596499711
C         0.65672006833925    6.19865879215795    8.54256573399614
C        -0.45635952620462    5.66178224569264    9.17631173289267
C        -0.97802517997078    4.46556085122403    8.70199639262584
C        -0.35100446319758    3.79336087742456    7.65444059541195
F         1.23463666091685    2.66304163521977    3.12876768914842
F         0.16531904373772    0.37948298117752    2.29395061356432
F        -0.45452810589891   -1.60665866342981    4.08305898705665
F         0.05607394368626   -1.20427004833675    6.74334101789075
F         1.08087805180371    1.11388381983461    7.59015080279328
F         3.76687664313337    1.78991370910394    4.82233031106939
F         5.88213609353645    0.61011826884336    5.95796304185694
F         6.37213988518760    0.93438790232847    8.63938852880817
F         4.67141128099162    2.48084230852282   10.12254871281745
F         2.58467756354619    3.67086986316085    9.00483330489061
F         2.27502246740069    6.11803780442362    6.85640823100760
F         1.15536888869715    7.37943240670720    8.93042911745252
F        -1.03842340160392    6.30749543246079   10.18911189276685
F        -2.09027468332983    3.96459155210846    9.24606288707186
F        -0.96406572411818    2.68764074866816    7.21323225948960
N         2.83532307037110    8.07653039329209    3.59633652745608
N         5.09979744712670    7.87322906293085    3.97211630903745
N         0.60449401625699    8.24783252848656    3.00430683614325
Ni        2.49164814003959    6.36514109301131    4.53533238004927
O         2.22108623023616    4.35418103412846    4.94446759410147
H         2.71250845384822    3.83109706232577    4.30730768000021
P         4.77337142811597    6.37719697819588    4.62360878873746
P         0.31494704594484    6.97192609224041    4.03150783456591

