66
CSD_code = DOSJOL | q = 0 | S = 0 | Stoichiometry = C10H35B18CoN2 | MND = 10
Co        6.15789849415702    2.45498589438056    4.73032210350619
C         6.08879450632988    4.14135555020472    5.93359132334393
H         5.09288674668803    4.56079619595369    5.83636748258609
C         6.24924857356362    2.86456701062839    6.78292766568565
H         5.35271527968093    2.44732570535904    7.23475842906695
B         7.20344288364280    4.19540622745518    4.69046294595857
H         7.00509764148824    4.83080074448380    3.72195157817773
B         7.37613085970027    5.22013964752771    6.15500652379134
H         7.17388847268827    6.37538288810307    6.05309762704444
B         6.72869195101672    4.34250988284522    7.52559739313583
H         6.01482982166693    4.79968780215157    8.34237974393246
B         7.48295621617398    1.90865851718553    6.22896989549224
H         7.46029610255124    0.74515650452835    6.42876217057747
B         8.22702654142993    2.77925466909784    4.90744293879180
B         8.77647355122153    4.34833563402107    5.54842521492998
H         9.67115827490898    4.94390799882988    5.05607798658001
B         8.46791477938240    4.41008458464391    7.29976327526248
H         9.16551531500766    4.99872744713046    8.04499719291862
B         7.66924566214764    2.88053163206032    7.72594109281794
H         7.66226710741274    2.32441561043338    8.76499556608434
B         8.95810081100371    2.87518103199023    6.54216364249922
H         9.98884674722508    2.35299212152985    6.78700140383791
C         4.92927356308659    0.76539629651812    4.77784219273379
H         5.00573918322633    0.34127002890407    5.77436846513041
C         4.10133265413609    2.05644128969246    4.61222251301043
H         3.63623094976932    2.46367630480386    5.50747997504100
B         6.18438106764488    0.70622199963190    3.69750527210386
H         7.13344772817937    0.05166105445493    3.96486687832398
B         4.72446388941559   -0.29794715516538    3.46417474970204
H         4.81855015558765   -1.45720692551153    3.65756335825024
B         3.35745206187128    0.58809337099425    4.09536207091359
H         2.51902776679620    0.12869994785425    4.78427332410715
B         4.66910804131280    3.02832441110653    3.40167465034845
H         4.47732045881689    4.19206454035797    3.45182880338339
B         6.02776683103380    2.17366290557480    2.70815553314268
H         6.88300180944720    2.69620523018773    2.07332241621812
B         5.40572651230797    0.61225881813521    2.10883839075242
H         5.92887674845118    0.07233520990922    1.19507283926062
B         3.63873503993510    0.54926095539992    2.35336252816028
H         2.91192590516773   -0.02262030968660    1.62207417510241
B         3.18587786268107    2.05920000806411    3.16870615762332
H         2.14880539976871    2.62030335947963    3.16162961522520
B         4.42381574413671    2.08660569796356    1.91856311524922
H         4.25506683151379    2.60318113251914    0.87110922346222
N         8.99304587019947    2.11783284536025    3.75441539067132
C        10.22844576843429    2.02702026167544    3.35904441742874
C        11.34502903169731    2.57592692037295    4.18539410370808
H        10.93041704190851    3.22601830433785    4.94507154716704
H        12.05004040554666    3.13674707105613    3.57986655312407
H        11.87518299850861    1.76576749801746    4.68381850450003
N        10.54517742942847    1.41762640443358    2.19550749073699
C         9.54195716312758    0.89637282099777    1.27880982771307
H         9.95873118638231    0.95722189300285    0.27122939312966
H         8.64640566134372    1.52048898572698    1.29419569194481
C         9.17355630049598   -0.55280814899411    1.59000144657702
H        10.03936031798698   -1.20347866861842    1.49041786002071
H         8.40507077179366   -0.88825136094073    0.90135073201040
H         8.78484098782133   -0.64417752210128    2.59904980288043
C        11.91630947656495    1.20740047012374    1.77161712331507
H        11.95888297410628    0.25256566346195    1.24134839240222
H        12.56958011715597    1.12628241040964    2.63957317627475
C        12.41458747200986    2.31751750310059    0.84516574045045
H        11.80129972090908    2.37593876226270   -0.05016081037892
H        13.43964443353473    2.11581770969009    0.54714756468408
H        12.38029125263086    3.28399929066883    1.34029887829923
H         8.31939107504014    1.68027941422378    3.14173773007490

