96
CSD_code = DOSJIH | q = 1 | S = 0 | Stoichiometry = C30H60N3NiP2(1+) | MND = 4
C        10.99465562609335    6.51292384835378    7.79245276588834
C         9.84216334969880    7.27417764762437    7.18563369779181
C         8.69176654587215    7.29034623776366    8.14417144620904
H         7.83829822839385    7.86914081020786    7.82320639712057
C         8.63373899654631    6.63526598174549    9.30783013532270
C         9.78344956344499    5.83527838403974    9.71246090543787
C         9.32342307359269    6.54719602592851    5.89714437637984
H         8.39283713879020    7.05611281078110    5.62915321681798
C         8.97798421467228    5.08979332449415    6.21013919644300
H         9.85723918076211    4.52989585693483    6.52484440118294
H         8.57384408951589    4.60990577504504    5.32233385992439
H         8.23098264580160    5.02482952415102    6.99811730596728
C        10.24737247053047    6.60572088229527    4.68161594887078
H        10.58973134376239    7.61416978425052    4.46516907895938
H         9.69349345222832    6.25768670523243    3.81218557765000
H        11.10710140330300    5.94900637505957    4.79375461963630
C        10.28838220973956    8.74920553385620    6.91996236085706
H        11.19521699119103    8.73106343824722    6.30480047902853
C         9.25172747353372    9.58985244293630    6.17759115219752
H         9.00882021145171    9.17759192345041    5.20268241660044
H         9.65764734652273   10.58744102146985    6.02425154971687
H         8.33557414299973    9.69410837737517    6.75151787784563
C        10.63126858422052    9.42937613792676    8.24725369251557
H         9.73612925025557    9.56966409884135    8.84863281524803
H        11.07291972981609   10.40584901745021    8.06363196990008
H        11.33833960603919    8.84054640261941    8.82942752070810
C         7.40506266935821    6.72485645748353   10.17932445666896
H         6.71199757706342    7.41400881329732    9.68340577766905
C         7.73699940531244    7.29601310825050   11.55793574287166
H         8.36784137123977    6.60685699305504   12.11085019901930
H         6.82027891625795    7.45247698661155   12.11988469853882
H         8.25052380351836    8.25145201748872   11.46623233038905
C         6.71532274678398    5.36631543280856   10.30319059386765
H         6.47891728850289    4.96128819594202    9.32098044033825
H         5.78942317740815    5.47417431422433   10.86136453522441
H         7.35684173708708    4.66613605085826   10.82892436851362
C        14.68152628965565    7.06195076779226    8.21130433601273
C        16.10658264594440    6.53596816590113    8.35273212352652
H        16.54400103477522    6.30300921494348    7.38554335009627
H        16.12402979002748    5.64611265692328    8.98073492155216
H        16.73105881301217    7.29296990454825    8.82394742425309
C        14.61876069745274    8.19784416925285    7.19316750003833
H        15.36245289304147    8.94771414069799    7.45811961695877
H        13.64666803045007    8.68763327095590    7.20142438915926
H        14.83902573994774    7.85726337007186    6.18476477282342
C        14.20381661797538    7.56006420078013    9.57995002969303
H        14.23223430707802    6.73816870016728   10.30505833890459
H        13.18549775512449    7.94722665503118    9.52500523441426
H        14.84496286873092    8.36033585307178    9.94426234184015
C        14.05006238405271    4.53217297412204    6.42433602298708
C        12.82687966498717    3.65718907662855    6.13390880601310
H        13.09903278728982    2.83687352870069    5.47330265055614
H        12.02867114558053    4.21942201119477    5.65394356605530
H        12.44498903836776    3.22837864765590    7.06384997623511
C        15.16868214465774    3.62502439038191    6.93739095542869
H        14.89521625331100    3.19745204458523    7.90271715205510
H        16.10834503796208    4.15673854867736    7.04548394221939
H        15.32853721114531    2.80772480457829    6.23676557288951
C        14.48947784689919    5.27631312714303    5.16880569690160
H        14.68658701427004    4.55295988889110    4.37903525670660
H        15.40681266768326    5.83423694422179    5.33785795860572
H        13.72245811651633    5.95797317454061    4.80348648080261
C        11.50056460221479    4.95146047644806   12.90743256978068
C        11.66329488596332    6.45814478714341   12.69015630305144
H        10.71447877918086    6.92202032578293   12.42881300644869
H        12.37797216391800    6.63887937647270   11.88140114581109
H        12.04148468787293    6.93455705601094   13.59209532447139
C        10.34860861029885    4.65918728281385   13.85938385080130
H        10.43957947026002    5.28495008537670   14.74571614808221
H        10.36163237538180    3.62124208354469   14.18186025757217
H         9.39184214732817    4.87040281384836   13.38682558098919
C        12.81689573593478    4.38109306989624   13.42296368892626
H        13.60467877465681    4.52099589174553   12.68199131380678
H        12.73681657345006    3.32153294816642   13.64647491074396
H        13.10768952563332    4.89675921891449   14.33629708603609
C        10.61802853447121    2.49847599417655   11.06034809583381
C         9.24784339113773    2.23821939941110   11.67087909225944
H         8.91834536053708    1.23666778228751   11.39849668828573
H         8.51572038395631    2.95018934555159   11.29871786416320
H         9.27327867658939    2.30019251218773   12.75432829564549
C        11.67823631395254    1.59209112954873   11.67409600158586
H        11.64935572007350    1.63292434485618   12.75964163155609
H        12.67186170071336    1.88119768892771   11.33213386387161
H        11.49941000589499    0.56073141361378   11.37566031606394
C        10.57343824953527    2.28119494136225    9.54414594196320
H        10.41490181955248    1.23117295615107    9.30721076176112
H        11.53256814192038    2.59453355311700    9.10211612623195
H         9.76570521016684    2.85871939487796    9.09379637720428
N        10.92354436691782    5.86667005778628    8.92138084455098
N        12.17393742840405    6.47824204592284    7.14845136192185
N         9.77415061819575    5.12030209163601   10.77968863910749
Ni       12.48400057476978    4.85377391818852    9.57650326974747
P        13.51082834500394    5.63072623670843    7.84978720170110
P        11.16590609878954    4.29090404160618   11.18559691897436
H        12.26686092265055    6.97736723255293    6.27387381477058
H        13.54515544743403    4.09993153380780   10.12817938223026

