66
CSD_code = DOSJIF | q = 0 | S = 0 | Stoichiometry = C10H35B18CoN2 | MND = 10
Co        5.34817508070993    2.31318639727293    3.31331470675988
C         3.59976643513137    1.10751690395138    3.26112499053960
H         2.80034950483677    1.70764041566969    2.83343119422380
C         4.68887954078253    0.59433932953174    2.29608803870458
H         4.59050995911624    0.85920435227997    1.24858718441833
B         4.17944339627679    1.38075895802514    4.77735823045684
H         3.63200530857727    2.18257986463498    5.46003610141773
B         3.16932014242296   -0.05958510731441    4.44214770845886
H         2.06141145874423   -0.07415027430279    4.84530861372525
B         3.49236069222977   -0.54882517323221    2.79433458670503
H         2.66184186226146   -0.84251717698675    2.01355815315954
B         6.16531578987141    0.45846998832825    3.03930349807565
H         7.16515688349132    0.49489540124981    2.42162102899259
B         5.86185376454422    0.90376512688649    4.70971018056142
B         4.63977087016114   -0.24056918873152    5.37492389938965
H         4.63094993636912   -0.52641309462639    6.52381602135328
B         4.24867496306527   -1.43338844428342    4.11474242847293
H         3.95144756675025   -2.54463651732870    4.36723603556368
B         5.18101396279320   -0.99288260029207    2.67100790213661
H         5.53368991497590   -1.70072460315016    1.79963727936865
B         5.91362122372709   -0.82234358301149    4.26404049104821
H         6.80535764388274   -1.50095174364639    4.63370332025496
C         4.74590903358052    3.77652484246995    1.95390888708064
H         3.89820367810092    3.37684732374233    1.40119548375535
C         4.49339755086790    4.20220028829331    3.41623738394072
H         3.48729873295921    4.07873991927623    3.80659420271043
B         6.28890882533732    3.22454335687117    1.71508283433172
H         6.49802720246669    2.45243551063319    0.84712776379767
B         5.79779367860522    4.84457675575170    1.13955130657776
H         5.64989493283658    5.00154905767748   -0.01957189663475
B         4.60285010493133    5.46812894092757    2.25007151191554
H         3.59776471441939    5.99394046857861    1.93057741358980
B         5.84596651715696    3.98371874524431    4.35787468433342
H         5.72900593118476    3.83098333717980    5.52433392139370
B         7.10082208582226    3.38374324897493    3.25954913109054
H         8.07084091245380    2.78639185644949    3.57609922655629
B         7.31872109068564    4.63837116792694    2.00254835282045
H         8.36558866444864    4.76522994315741    1.47397400101296
B         6.27195145227880    6.02964957135606    2.37317128167994
H         6.56989962250126    7.13929605926282    2.10939848598026
B         5.34554187975374    5.61487760435822    3.82390965342468
H         4.87875907098109    6.33661212055660    4.63172129049260
B         7.03709820156631    5.11159818708445    3.69799325270292
H         7.87877297468654    5.58245254016674    4.38086655919806
N         7.00050491761998    1.34038679346394    5.60892006222741
H         7.89689983487806    1.32909801992648    5.14644396054755
C         8.26135006497048    2.33888956256248    7.43866588908260
H         8.15380322873066    3.39579870491748    7.67593757700064
H         9.09862037018166    2.22223209007710    6.75786292276313
H         8.47852615562008    1.80452134012470    8.36209698449078
N         5.86564399994303    1.88538835589297    7.51342358380747
H         5.04146281776755    1.57706564622022    7.01137785236284
C         7.00127636708553    1.83267454213357    6.81524358917726
C         5.67643433256105    2.51404257727828    8.79589718620053
H         5.77845437233742    3.60446900090203    8.70672511392453
H         6.43902136892925    2.16252219231216    9.49912872938082
C         4.29024475998164    2.17178704989533    9.33340686289436
H         4.19187844990843    1.08684681530718    9.40147625958089
H         3.53533376728998    2.53387670711103    8.63316019172634
C         4.04371504768217    2.79214546374462   10.70705614853517
H         4.79976062823751    2.43235700731704   11.40829716460562
H         4.14518130835223    3.87717140856348   10.63790322495059
C         2.65778822878468    2.44552965189771   11.23719969096792
H         1.88802105005070    2.81619535999200   10.56449010004611
H         2.50158412557181    2.89145664764390   12.21615039792847
H         2.54286204514181    1.36806498584865   11.32819018235458

