81
CSD_code = DOSJAZ | q = 1 | S = 0 | Stoichiometry = C25H50N3NiP2(1+) | MND = 4
C         4.57729903786757    9.09895687220386   17.01687105648699
C         3.66157270259530    7.98344808923259   16.57448764876995
C         3.20120100883136    8.14597327246181   15.16873858511492
H         2.59905629180950    7.34270783696537   14.76938910918500
C         3.48038943017072    9.22591896621173   14.43423517721125
H         3.12737797335097    9.34413453544124   13.42102325629550
C         4.28706441522009   10.27844384219174   15.00698048068799
C         2.41704549480172    7.99235440203471   17.50375328842818
H         1.79970109225958    7.12496573633123   17.26568477670466
H         2.77502731600203    7.88582723861779   18.52880731145506
C         1.58163735954849    9.26026182355554   17.37412543921425
H         2.18213948224174   10.14917241710089   17.55814324769674
H         0.77451316281691    9.24293953327332   18.10182546445580
H         1.14032502080215    9.34015725153851   16.38251634332783
C         4.38213539835269    6.62437081880399   16.73108004101208
H         4.71643704745597    6.53938824464447   17.76563984860067
H         3.66644733871270    5.82438190255532   16.53603299493736
C         5.57116332639236    6.48107403702550   15.78948852369334
H         5.25450443869460    6.51134129879864   14.74860646296144
H         6.07145327794254    5.53272831933342   15.96593781699260
H         6.29362856488969    7.27881776859884   15.95131659833955
C         7.79208750033364    9.54331180892801   18.68205187437063
C         8.74774852631079   10.41641919669443   19.48621089869996
H         8.55601078091539   10.33246339332404   20.55244508449854
H         8.65372021906985   11.45950587179983   19.18538475770295
H         9.77398873548008   10.10005532909872   19.30814105770707
C         7.77410757557247    8.10979074716996   19.19829971900591
H         8.74426619151444    7.65047324075216   19.01560447588311
H         7.01428167162395    7.52345357178891   18.68706849252423
H         7.57933488403373    8.07098800954144   20.26528518957681
C         8.20691952444714    9.56740707202113   17.20696181671067
H         8.07924458744932   10.58395062075029   16.80089858265040
H         7.60283913835661    8.87327196343904   16.62293702665349
H         9.25094456406391    9.28240066529509   17.09386798676093
C         5.34107212734639   10.76018818452854   20.31056170661062
C         3.87881430651808   11.08339885608990   19.99837471682653
H         3.34108547889677   10.18691567969016   19.69842293646565
H         3.82455730408036   11.82074363878921   19.19265040353467
H         3.38714335462713   11.50210709881387   20.87385669641117
C         6.01674897521244   12.00918334837474   20.86475722287380
H         5.46277790353907   12.37338637656330   21.72778055746264
H         6.03220223994153   12.79524140313531   20.10946830306450
H         7.03638011108707   11.81215673527357   21.18005985982232
C         5.43283399472978    9.58499035878537   21.27431807010878
H         6.44828175868880    9.45267565414296   21.63820074365875
H         5.10462888338909    8.66766569656598   20.79003552186364
H         4.79175425496059    9.76863621598495   22.13491538599486
C         6.75699176208485   12.91654839467723   13.65795736319680
C         6.17622723412508   12.78575606207192   12.25123369336935
H         5.31021408596606   13.42494548241618   12.10049629620948
H         5.90879199498214   11.75573838298884   12.02137461311122
H         6.93637429583068   13.08766370990668   11.53263576157601
C         7.41074434857660   14.28151046335983   13.84867204677478
H         8.32262797249585   14.33833600947704   13.25715794849197
H         7.67577429891771   14.43629322554531   14.89404736510949
H         6.75323190860210   15.08367919919915   13.52337953492142
C         7.80005383342287   11.81912141232610   13.89187772419858
H         7.34304266219927   10.82843454666114   13.87085283623247
H         8.28122731695032   11.96176018271434   14.85988791560170
H         8.56647727636735   11.85273719990333   13.12060156567557
C         4.23021452267109   13.99667373876022   15.25238325100580
C         3.53081557162880   14.44514443343307   13.97539937890320
H         3.06979620362142   13.61163608640176   13.44737399323331
H         4.21803611501775   14.95664031666094   13.30599544681731
H         2.73984758272442   15.14819954227923   14.23215293576447
C         4.90108503719692   15.17897501057174   15.94914937885942
H         5.55143004732007   15.73073311696598   15.27802702416728
H         5.48767483201914   14.83113600866406   16.80053376100323
H         4.14201686130213   15.86638148720432   16.31736116769112
C         3.23014100016533   13.36712135276188   16.23007377350743
H         2.54485744233693   14.12102046681044   16.61165310878664
H         3.77486051487915   12.94102078619579   17.08641669069120
H         2.63828124270838   12.58264923315348   15.75880593672835
N         4.80123806213932   10.18698220441981   16.21107251937670
N         5.11840613690528    9.04035441027387   18.17701295563810
N         4.54777685429278   11.39478779453819   14.30701413292808
Ni        5.90683781201870   11.63088042541546   16.92180033062915
P         6.08297971076558   10.32764287355237   18.64549350289237
P         5.51121331168927   12.63457131742009   15.03541706498945
H         4.16237816345242   11.48735959473626   13.37568055578345
H         6.68694021167349   12.63452058427230   17.54096586711915

