53
CSD_code = DOSNUW | q = 0 | S = 0 | Stoichiometry = C22H23BrN4O2Pt | MND = 6
Pt        0.09903879621289    5.48580345864947   11.45535993653028
Br        2.53934935848352    6.22788467465278   11.90135591821509
O         1.61941739621558    1.61824411678486   11.87131948053183
N         1.14789197538447    4.47361463538202    9.71192150805616
C         1.47512947825480    4.96772748436927    8.52884331373855
H         1.06014231400189    5.93599679778341    8.28464006200448
O        -3.84439935550862    2.98660774084905   13.17432040209464
N         0.73535610483923    3.56275882777805   12.30693553581571
C         2.30586142288300    4.30668335088137    7.63869501585507
H         2.54333731926558    4.75488902074414    6.68751164559862
N         0.61209240716733    2.82289051821121   13.40424840023808
C         2.81965684530088    3.06686281665846    7.99393911037276
H         3.46568922510970    2.52284243413918    7.32216197636293
N         0.52705440606530    0.58756492296075   15.14858456854344
C         2.49814652345680    2.54736431153661    9.23320751641735
H         2.88170790079399    1.59791291868375    9.57072836112276
C         1.66229038881324    3.28693384696699   10.06722558252343
C         1.33419371617626    2.83808860306432   11.39536879827879
C         1.13210201609085    1.66383597517989   13.13651819199012
C         1.20000822596862    0.50645413325740   14.00490605622209
C         1.92738089074664   -0.62260805155527   13.62596043245962
H         2.45523736695145   -0.64176676023278   12.68548015607673
C         1.95119945925251   -1.70297518346861   14.49148031194146
H         2.50493043813537   -2.59469806124844   14.23680435099332
C         1.25435438369774   -1.61794851201637   15.68640863975766
H         1.24931439938448   -2.43779984759708   16.38705559668601
C         0.55701555738804   -0.44619818081487   15.96179608279943
H        -0.00678104196469   -0.33140779569801   16.87743598198796
C        -1.82876338346245    4.75785257227445   10.94574276954060
H        -2.55679620278330    5.04286171037583   11.70286008630065
H        -2.11156865067842    5.21914198994671    9.99690294418097
C        -1.70395448542846    3.29691187980668   10.78439047286967
C        -1.31097922454152    2.78450252193157    9.54178486112041
H        -1.18979171434506    3.46886978161054    8.71198125076117
C        -1.07463466627769    1.43802416137843    9.34924515534102
H        -0.75972090151362    1.07897716529819    8.37938876909327
C        -1.24317027601415    0.55334566508890   10.40124197144553
H        -1.05100782203120   -0.50093762092192   10.26623887883236
C        -1.68088745598857    1.03132924431614   11.62478322544673
H        -1.83908517810641    0.34336651187801   12.44373155464228
C        -1.91844460457394    2.38201042927677   11.83406065999073
C        -2.43690078797345    2.83055976365044   13.17916180108554
H        -2.23063162169531    2.06744687787069   13.93253883750966
H        -1.94450006942013    3.75910810454180   13.49334283743712
C        -0.39952343633378    7.25329274613662   10.53343077786497
H        -1.29868525656998    7.72088528084439   10.93602610727289
H        -0.55951389919693    7.07808537249925    9.46609596116942
H         0.43001326940472    7.95285654800597   10.64754239549985
C        -0.55601018225338    6.29715454580398   13.22488754636478
H        -1.62459644276511    6.50091545304878   13.28349115666584
H        -0.01224036320958    7.22525738080106   13.41069248082562
H        -0.27957586565507    5.56605056328895   13.98972009914631
H        -4.08024869716876    3.62757315532796   12.49430446639807

