29
CSD_code = DOSQUA | q = 0 | S = 0 | Stoichiometry = C7H11NO9Zn | MND = 6
Zn       11.62905587534741    9.87288430565020    6.90531692837232
O        13.17501935885630    8.35091787645649    6.96361008998921
O        13.15174044556093   11.28192928056769    6.94207946366282
O        11.71063930315942    9.87997003463324    8.97504107505253
O        10.32115644323958    8.55888614420980    6.94108009439969
N        11.13340360732274    9.05309116192156    4.24340503501497
O        10.17618454525352   11.46079137953912    7.06306104248530
O         8.49653500995606    9.56040605514902    6.17017882623904
C         9.50560894678656    8.89162057032746    6.01038826528593
C         9.96623162361768    8.49446739375970    4.62447346280322
C        11.08791293725362    7.85465058713641    2.20217628688006
C         9.30732063087200    7.61698932556166    3.78351181109865
H         8.37332337293032    7.19176245276224    4.11811472652205
C         9.85173994788589    7.31686948276779    2.54419725685684
H         9.35500415159561    6.66482322889340    1.84238376755572
O        11.29808724495401    6.86432299529709    0.02647250003659
O        13.15524978930025    7.46630799251342    1.15713901325119
C        11.95666839534093    7.33144950139875    0.93487322031022
C        11.70061830195938    8.71914495402284    3.08033329349861
H        12.66851116732682    9.14329647733528    2.85523732979103
O        11.74550565832421    9.96543264912447    5.00803915856489
H        12.42073653078409    9.30444616296558    9.27695161119166
H        13.81057400694951    8.50288906256200    6.25526152967441
H        12.75215580499993    7.50468545278741    6.77628498669094
H        12.92338363096723   12.06445967357253    7.45315844149576
H        10.88165556899997    9.46091907174030    9.23378574920341
H        13.27551630525951   11.55331837043642    6.02601947695129
H        10.12065093635124   12.04578889383079    6.29969945743394
H         9.34241045884079   10.94147946307898    7.02892609968947

