72
CSD_code = DOSSOV | q = 0 | S = 0 | Stoichiometry = C32H32FN3NiO3 | MND = 4
Ni        6.08350372326765   13.97132234022032    4.55499577559347
F         4.34351548857354   14.75465510411534    5.94313974069096
O         6.41480397262926   12.50058151493827    5.65012814103912
O         5.99607577898135   10.33199293924929    5.86246452710864
O         6.73225973384049   17.43789283867509    2.84858779946227
N         5.00455579143442   12.84570943775660    3.58370281727877
N         5.73718893183016   15.44371547706371    3.46519803849720
N         7.41273178638401   15.10077690049374    5.48683819012131
C         5.94817683720098   11.37951894390082    5.25403702259083
C         5.32640265209668   11.44943810058789    3.82871580072432
H         4.43925267943494   10.81333645708289    3.76241703637237
C         4.03107816783881   13.17216988156165    2.80490277738539
C         3.21955390116653   12.11516658910180    2.13937994683785
C         3.47430313280885   11.78259768718957    0.81461993874755
H         4.23541523316774   12.31952727761736    0.26692898567995
C         2.75316403553503   10.77227405091016    0.20245455989211
H         2.95893914184375   10.51481145749747   -0.82579809981443
C         1.77284769525432   10.09314195915197    0.90543901211643
H         1.21589475846133    9.30118737625436    0.42814747340661
C         1.50525915326646   10.43307663905710    2.22142430804497
H         0.73655304323979    9.91057954268441    2.77086820208760
C         2.22519017456944   11.43953684859421    2.83997281467663
H         2.02060597573807   11.70776113469273    3.86656849270777
C         3.67494742297066   14.54969143473033    2.52307656011293
C         2.43391734564115   14.79490914951300    1.91796112603019
H         1.79603284629722   13.95594625450667    1.68305582891128
C         2.00042155163748   16.06927691477632    1.64114036416212
H         1.03694497700390   16.23006715765186    1.18249956113717
C         2.81787854230516   17.14348859788297    1.96958705041565
H         2.49015814880494   18.15384820350440    1.77473645814282
C         4.04687568571783   16.93482835948821    2.54983179548287
H         4.66424464951989   17.78260745998237    2.79182250191932
C         4.52305326494340   15.64541758457517    2.84088290863963
C         6.68844083509565   16.40812908828488    3.50131231373840
C         7.83580995815936   16.07847824325247    4.46130372510660
H         8.15468812036839   17.01806191108538    4.93183159720055
C         9.02455086299665   15.42826964019830    3.71918789151546
H         9.91850009624508   16.04164899206858    3.83031634860862
H         8.81827225013242   15.32619541193757    2.65450573221510
C         9.19718928275055   14.07409841010666    4.41188966631188
H         8.57218004403485   13.31677175240421    3.92298328859980
H        10.22871488647362   13.72980572804003    4.42621600017027
C         8.63637275359860   14.34638071407340    5.79908490237204
H         8.40071964707694   13.44258765197175    6.36034823424747
H         9.32624139921629   14.97690366414500    6.37739751001356
C         6.86695539444501   15.74862938943129    6.68997972319895
H         7.65669828470691   16.34355523552874    7.17326921417239
H         6.55667749176576   14.95088204486159    7.37350971264661
C         5.69660066315287   16.64613025737318    6.38894815622743
C         4.46207034856336   16.11595796366333    6.03325573200192
C         3.36464477151982   16.89601653289301    5.73462755919993
H         2.43685612747569   16.42659494951596    5.45012546089197
C         3.49656006248202   18.27324003221524    5.79348902604757
H         2.65253710058671   18.90160513411827    5.55687759832070
C         4.71075945173889   18.83647817313067    6.14454808604271
H         4.81711134016122   19.90936509518294    6.18319355443021
C         5.79711366675796   18.03043509184613    6.43953296718050
H         6.73905915657718   18.48319104419647    6.71201571949784
C         6.38114428612362   10.96738043043898    2.81714535318974
H         6.08042009756703   11.28191587613962    1.81277254299342
H         7.33244476396808   11.45742346158019    3.05051588309969
C         6.55331027676627    9.45064726414704    2.85099263175114
H         7.49935965332154    9.19168399979691    2.36952693468167
H         6.59936697167291    9.11939726884548    3.88970169345596
C         5.41644777413752    8.71791330221686    2.13050201291472
H         4.46251000947600    8.92497534268130    2.61774272465856
H         5.35549152575604    9.08334484703521    1.09942041838684
C         5.65632963616321    7.24237468215123    2.11297542589286
H         6.57089384691133    6.92929100298590    1.62442642798960
C         4.85089822015187    6.34730444670421    2.65091968707088
H         3.93950074982819    6.63493855202681    3.14846879666799
H         5.06541196867319    5.29264575672272    2.62171229108657

