59
CSD_code = DOSSAH | q = 0 | S = 0 | Stoichiometry = C27H24FN3NiO3 | MND = 4
Ni        2.43135779967760    4.78547767454384   13.70411418523520
F         4.89254110535928    4.45240742843407    9.64494876414505
O         1.73116599845880    2.60882494867477   10.55204897150998
O         3.25533506905900    5.28403514562491   15.29822290223691
O         2.87767340332765    6.18328560259616   17.28970817245880
N         4.01846133440767    3.75304692822984   13.11150001791743
N         1.60684059926766    4.29143964638688   12.12254415285819
N         0.91816044692243    5.60714029137175   14.37280195911799
C         4.61315680166404    2.96082717135765   14.19948149706928
H         4.82021458876712    3.59034502346648   15.06453019579966
H         5.53882452666876    2.48344997981682   13.85195344193466
C         3.53104571614184    1.92142113532602   14.44281179697465
H         3.84939261853863    1.10457405381206   15.08583634297768
H         2.66129221872355    2.41906553798452   14.89489736198557
C         3.20777564296967    1.47712735600273   13.01674776424475
H         2.18204417765901    1.12947351881779   12.90313370767553
H         3.87248755656903    0.67168089917385   12.70433901975117
C         3.46831188966281    2.74585286795023   12.17367252015746
H         4.18626374443458    2.52739733289358   11.37298830786133
C         2.17479406223770    3.22102727136454   11.50624940842611
C         0.57981135326507    4.99150136575043   11.52936832955736
C         0.37309295109799    4.95868966883960   10.13956233304981
H         1.02429158052000    4.35405666714585    9.53220913259127
C        -0.63599217737258    5.67128570986225    9.53895219993684
H        -0.75290365041335    5.62334274630985    8.46657604619475
C        -1.50243592037299    6.44942054371659   10.29947454704320
H        -2.30142969706286    7.00145200245611    9.82918017100021
C        -1.32235904141661    6.51166471288044   11.65891866605181
H        -1.98075527243141    7.12633911380842   12.25416507876644
C        -0.28617732442712    5.81414241921671   12.29941780006267
C        -0.14213997252751    5.96656970276437   13.73033042796286
C        -1.28925062612531    6.55787004924798   14.47302004915399
C        -1.34645671152368    7.92397507335171   14.72865147467726
H        -0.55616529763161    8.56811796225622   14.37054991115814
C        -2.41405592824497    8.45113915468906   15.43296424481718
H        -2.45461884596275    9.51228180959323   15.62773012695411
C        -3.42587658006947    7.62138110336775   15.88719043874252
H        -4.25666913867184    8.03528658855806   16.43824139009295
C        -3.37106039776879    6.26154541035242   15.63329011323933
H        -4.15910760702789    5.61230994018417   15.98395805438974
C        -2.30597101311412    5.72813571861451   14.92880862022193
H        -2.26079453011853    4.66836519522424   14.72502692685214
C         1.00507392663906    5.81589281791122   15.81029439556634
H         0.54296681607856    6.75719286079314   16.12224492775868
H         0.50302792363527    4.99879909789061   16.34283817060916
C         2.50724803675389    5.78074957585255   16.21029541175425
C         5.00076273197787    4.65092429820236   12.48160205947139
H         5.51381013087052    5.19024894774860   13.28279360524128
H         5.73427246447762    4.06884936023238   11.90806355587537
C         4.28076359975590    5.63141319534238   11.59458972232782
C         4.20285151401110    5.46205605548521   10.21966758633267
C         3.44694750798756    6.29351085220971    9.41305257425807
H         3.41639666442859    6.11492828764125    8.35014835290225
C         2.73551966033537    7.32517109729496    9.99734477763280
H         2.12891874325850    7.97081779020877    9.38178631438674
C         2.80508941294365    7.53123885147045   11.36617209138296
H         2.26285961240850    8.34961056711588   11.81420682128065
C         3.56983236750668    6.69226157108870   12.16151482867398
H         3.67704343381673    6.89406230148621   13.22606823168969

