70
CSD_code = DOSTAH | q = 1 | S = 0 | Stoichiometry = C27H35N4NiO3(1+) | MND = 6
Ni        7.88763598483070    4.29718309332851   12.49606404087759
O         6.89540971685719    2.86971759340628   12.02843656266618
O         6.06505345276627    4.77206721662014   13.82361482615163
O        11.99795037163855    2.32904384215821   15.50718414644425
N         9.57570949261486    3.51609991554723   11.41618245444664
N         9.09885098167663    5.92621514993407   12.75703284759052
N         6.78604949145291    5.72491159694207   11.13436438198025
N         8.83017128368584    3.64077196397491   14.50752506606456
C         7.39522806760542    1.67024956540980   11.97736691863816
C         6.76124273264733    0.62161551724079   12.68013875095366
H         5.87682680117461    0.86455900799977   13.24986853755424
C         7.20972483198958   -0.67723557526112   12.58279721143446
H         6.69288607986053   -1.46295249756507   13.11268717325495
C         8.32906783760276   -0.97670804921377   11.82122888145337
H         8.69244613846271   -1.99011398344662   11.76170806827020
C         8.98283488137626    0.03640866811354   11.13421393818805
H         9.85375277442289   -0.19981102667437   10.53943115370766
C         8.53109841623893    1.33891767025714   11.18673017787287
C         9.23459853786825    2.45594292632616   10.46206660082350
H        10.12739598930083    2.07155923113364    9.94991694916670
H         8.55725337289866    2.88505757115553    9.71394906265877
C        10.16857518036423    4.71316560228244   10.82904579949620
H         9.50819250553179    5.05739210632157   10.02955775214525
H        11.15593875451587    4.51435415132171   10.38488141905706
C        10.31626974360464    5.77808397776710   11.92252954070887
H        11.14714588153743    5.48393102243359   12.56647060934425
H        10.58251043475120    6.73694631225084   11.46492130529353
C         8.35007193011677    7.13609960004764   12.37958317781668
H         9.01976445892184    8.00465378661873   12.31182944627598
H         7.61058827833799    7.34044546520488   13.15562403559383
C         7.60229745301416    6.94300218388916   11.05812572470804
H         6.97841004086296    7.82691945215911   10.87778712005197
H         8.31560651662189    6.86574494676479   10.23503442368159
C         5.36774625051606    5.99355417046302   11.41781922851022
H         4.86312533470500    5.02341606286738   11.43609772823196
H         4.92706732145284    6.61257802065336   10.62336210526351
C         5.15002766244013    6.67498173068013   12.74001674036225
C         4.59275409378922    7.94165060573219   12.82895337493871
H         4.32751138671568    8.46685965390973   11.92343570024742
C         4.35004913569053    8.53198327383934   14.05834427942700
H         3.91107759163586    9.51548213696623   14.10621370945335
C         4.65798945182667    7.85147561576291   15.22252612062232
H         4.45971558968668    8.29853851146743   16.18377559567695
C         5.22065683872494    6.58800923017047   15.15626183793815
H         5.45605464070986    6.04893755458126   16.06434529779078
C         5.47390402734127    6.00495804875171   13.92314092280857
C         9.45793760653561    5.99225276130187   14.18358870969191
H         8.57457126433826    6.32194490396671   14.73631719909495
H        10.25398157093250    6.73005381718844   14.35292014474872
C         9.88694763674961    4.63287090279413   14.73824774706540
H        10.79614323464978    4.27492019910758   14.25050044297253
H        10.11768272692972    4.74829453995299   15.80626375374650
C         9.28892991835387    2.26086195418550   14.74017808598447
H        10.11911004852114    2.04709809054684   14.06464100923622
H         8.46168236763868    1.59101017356195   14.49331046630140
C         9.73429056317264    2.02815643654084   16.16135981550318
C         8.80541862645838    1.78833228943330   17.16399173274572
H         7.75742180223858    1.73785263151737   16.90333910561799
C         9.19976189104813    1.59342887946751   18.47521100522005
H         8.46380820799539    1.40351569295826   19.24019630935816
C        10.54561885559428    1.63246176103818   18.79640055295912
H        10.86657423268339    1.47400953752462   19.81385543414610
C        11.48709135404189    1.86960383415025   17.81202912981369
H        12.53930720703101    1.89521158101170   18.06095253270952
C        11.08998678774750    2.07442379580316   16.49687926385654
H         8.09490781997635    3.81627678605697   15.19417714019525
H        10.23524225293568    3.12056754696347   12.08823955862035
H         6.80581292923294    5.23519087811612   10.24106508444591
H         5.92484324484092    4.26917226646176   14.63441874965280
H        12.88979010996605    2.23902612005713   15.86452628067222

