75
CSD_code = DOSTAI | q = 0 | S = 0 | Stoichiometry = C33H34FN3NiO3 | MND = 4
Ni        3.50656055927654    8.34777089852374    6.43934862430922
F         2.91354642544692    7.04815054518151    8.34521734462253
O         1.87773388979913    8.07988906284539    5.63512405267882
O        -0.02209155618906    9.08146963113314    5.12159138631891
O         7.40064218066015    8.07486964146716    6.73130267508822
N         2.73964636271216    9.86400490742933    7.24379057666163
N         5.19427001703358    8.60848266290112    7.17441937532543
N         4.29668008380060    6.78863910297741    5.48734130343168
C         1.05878358326466    9.05477543454204    5.67356479505542
C         1.55767582119702   10.30474069875727    6.48102483606716
C         3.22232703159835   10.49530943758548    8.25691503170248
C         2.65291872453413   11.76774190760143    8.78710368270196
C         3.13622333712914   12.97365973694989    8.29480107462778
H         3.89189753975435   12.97491417166848    7.52300922710555
C         2.65698027496419   14.17185781408845    8.79688709743305
H         3.02969145827961   15.10326009052069    8.39769555599510
C         1.71332799026249   14.17598157234374    9.80878975541480
H         1.34047491228358   15.11100470319779   10.19890635397766
C         1.25859876258565   12.97566742594755   10.33056576183857
H         0.53653050704644   12.97270900317829   11.13335813125293
C         1.72930183291246   11.77636908310469    9.82877320080430
H         1.37934036679082   10.84139730161696   10.24127126867315
C         4.41975005693350   10.05725271555258    8.97093409443184
C         4.63955689031714   10.56011029739560   10.26308183093903
H         3.91912965978116   11.23711491591451   10.69377006423662
C         5.73073074630235   10.20129466321038   11.01713965712447
H         5.85727224343608   10.59996610890092   12.01199098353398
C         6.66106167991213    9.32061475008403   10.48135177895696
H         7.52272198454437    9.01895294856193   11.05795027391202
C         6.48808479146528    8.82347832674935    9.21331579452670
H         7.22039533318806    8.14467523173712    8.81189448720960
C         5.37943970336431    9.16620543989247    8.41901472098640
C         6.20348443030472    7.99441742231557    6.51027916901021
C         5.71017573801934    7.16483204980574    5.32322063876468
H         6.34086012645902    6.26773695784216    5.24293770431675
C         5.77193181055842    7.96779951014566    4.01152440390179
H         6.66775498367066    7.70717515154251    3.45092911046446
H         5.81602218628958    9.03669981584321    4.22401178237731
C         4.48159132157143    7.60453125633120    3.25842704008616
H         3.82314742060380    8.46663991607968    3.17854138438438
H         4.68415351880032    7.23767915264022    2.25360090254940
C         3.82877155153371    6.52521637561202    4.11614713701548
H         2.74004178582422    6.55327880982856    4.07659571097235
H         4.17880275926822    5.53161908509857    3.80237041144068
C         4.12724750623999    5.56510468163954    6.29316125455176
H         3.05073284667825    5.36928243485380    6.35028095107778
H         4.61102590541948    4.72496986586020    5.77083117300490
C         4.69407149158902    5.64173348953013    7.68527767071937
C         4.04159010734271    6.35328736245213    8.68514218634881
C         4.49670722423686    6.41717030526233    9.98511631514764
H         3.95316583342470    6.99505028344651   10.71495738303165
C         5.66083055657776    5.74163598764664   10.31128468298198
H         6.03600666765330    5.78096708412734   11.32166260766176
C         6.34352210724231    5.03227906386908    9.33893988738687
H         7.25693314556475    4.51554429423740    9.58921250431912
C         5.86291049201289    4.98148045949395    8.04127048819409
H         6.40313948969987    4.41980857833482    7.29358304704305
C         1.98457631238170   11.36405460754132    5.44501632108991
H         1.08464879635756   11.69037099105055    4.92082345464841
H         2.40192147962065   12.22387998747699    5.97331300027218
C         3.00409456518488   10.83065172890463    4.43650575904486
H         2.47480448477964   10.28682539744702    3.65159742684047
H         3.68788905437600   10.12384710529490    4.94567351907081
C         3.84347911605541   11.94991754345734    3.81646456269657
H         4.43441548927346   11.53341969143513    2.99432703038064
H         3.18849774605370   12.72015066929397    3.40479631381037
C         4.77885391766034   12.54968750167425    4.81777341457713
H         5.43657622188381   11.84388146654558    5.31244312590356
C         4.83657852444546   13.83355032728391    5.11903280221952
H         4.19132701014855   14.55554300874444    4.64475865933447
H         5.53659797511588   14.22305682807426    5.83960297860590
C         0.36941383590942   10.81632936840210    7.29195551175792
H         0.45145540239683   11.86838621934902    7.54954391843520
H         0.23324442260308   10.22271149978662    8.19209938513624
H        -0.51129855519630   10.68056643287111    6.66372247247807

