70
CSD_code = DOSVAJ | q = 1 | S = 0 | Stoichiometry = C27H32Br3N4O3Zn(1+) | MND = 5
Zn       15.80908624151793    6.54048679437048   13.74343235803228
Br       10.80398776193088    1.63405692752684   11.98643375924189
Br       13.01640546659645    4.54509762640343   21.20640174271464
Br       15.48955214263305   12.67141831888753    9.15364416279656
O        14.16799990181656    6.52780279844099   13.00423463084572
O        14.05443898767819    8.92135686453597   17.18165416735544
H        13.83088284960565    9.78647341622361   17.54674201821669
O        19.23764718884377    8.03529303487693   10.10512839699625
H        20.05214264446910    8.14117708865160    9.59800991921067
N        16.27165241386377    4.52262086655974   13.28612015537072
H        15.98285471255107    3.86977769429558   14.01541617913202
N        17.90562859049921    6.48348390823801   14.46434848083355
N        15.42486902270815    6.86851273516762   15.78652825435709
H        15.31029120614857    7.87110768307474   15.95190047698756
N        16.56516992909145    8.20227781463329   12.67190725453349
H        15.90111000493149    8.97207648061340   12.73521018478902
C        13.45597375517473    5.43286583535290   12.76525416625958
C        12.06482269065767    5.47324701989583   12.93535798468830
H        11.61899644216787    6.40318301448415   13.25205393983656
C        11.27654531541087    4.36790728407798   12.70118013708148
H        10.20785834539566    4.41926896701828   12.83816840900231
C        11.87103925816276    3.18539532548531   12.29132010637865
C        13.23891323816320    3.11539631860594   12.10180434494555
H        13.68467001032986    2.19044637784048   11.76660251667367
C        14.03649421606743    4.22648811522290   12.32585057243746
C        15.51861549514927    4.14578444467664   12.07306068766941
H        15.78940048392812    3.13278139235520   11.75171675462483
H        15.79539751511996    4.84614323219754   11.27739631169849
C        17.72274475716756    4.42179938942229   13.13368595336148
H        18.00072692606814    4.92230490833728   12.20305738272285
H        18.05927964845372    3.38037638465426   13.07186356088215
C        18.39135202703234    5.10697705416739   14.32513316428585
H        18.13318730288556    4.55384722862981   15.22947870812397
H        19.48075873089855    5.07975033208590   14.21331406187572
C        17.86660362784222    6.90661769790361   15.86701890239635
H        17.87379768058887    7.99668861899950   15.89934880223684
H        18.74552879594552    6.54716971321740   16.41450859368435
C        16.59105709705842    6.41558233928980   16.54903671583610
H        16.56933030333089    5.32323826432169   16.58043533720402
H        16.56943594264891    6.78044806513608   17.58187273281895
C        14.16532980104098    6.26979451744043   16.26506599884485
H        14.21470619852588    5.18580135819056   16.14068496901912
H        13.36743854788784    6.65036978169893   15.62203168502489
C        13.85986333696498    6.61014464502570   17.70028244244700
C        13.62813214977714    5.61523073525716   18.63569456755504
H        13.68001504979558    4.57872612084868   18.34057415429736
C        13.31325874831060    5.93971816703489   19.94564870680271
C        13.21938764542214    7.26296960912347   20.34224586879530
H        12.96589445587032    7.51184062815215   21.35994983658480
C        13.45587528942391    8.26254066627353   19.41732123026571
H        13.38313320459333    9.29811947662706   19.71812998504682
C        13.78184585174293    7.94847310569252   18.10479066603311
C        18.67628774577110    7.41393140902447   13.63612741779185
H        18.96801246066778    6.90361904089964   12.71850960130565
H        19.59013798524807    7.73756525844196   14.14772376514129
C        17.83602031592654    8.63474026213564   13.26029279562918
H        17.61777830686907    9.23168210850755   14.14806860751884
H        18.40692109735522    9.25862198193251   12.56505967871846
C        16.66503547930149    7.88235075876998   11.23120634769952
H        15.67229518839126    7.55905407138377   10.91019417528278
H        17.37048392900122    7.06254051322778   11.09598954329930
C        17.11581373908496    9.05496642044430   10.40089280002518
C        16.26154268326827   10.12439242275233   10.17872877498724
H        15.26155618559060   10.10544212604155   10.58550058540115
C        16.67703797399140   11.20664375672105    9.42217139819832
C        17.94519266089761   11.23121555009619    8.86372538067472
H        18.26099748355320   12.07085840810206    8.26583562299397
C        18.80081209031421   10.16814611130329    9.07833395745757
H        19.78985844598007   10.18156756352771    8.64291116989736
C        18.40238727890486    9.08320604944501    9.85147627911163

