80
CSD_code = DOSWAL | q = 0 | S = 0 | Stoichiometry = C33H38ClN3O3RuS | MND = 9
Ru       -4.94477932754482    2.01680222050431   14.04854883228944
Cl       -4.42820331145757    1.50082168627837   11.82200491858457
S       -10.63958522028905    6.77579417152671   12.52730756180834
O       -11.62890597377698    6.02738256148028   11.82085454423329
O       -10.99581789904332    8.03302223094934   13.11197793308983
O        -3.08964027550793    2.93469157031808   14.11193266797278
N       -10.04926586207037    5.83139846251404   13.80792846791190
H        -9.59512334327561    6.43909905072515   14.47563342528667
N        -5.71522063049755    3.71302379347877   13.28158963864199
N         0.43339215052165    5.92955213792029   13.24269035331915
C        -8.21174580459208    7.86906422771050   11.90714995512762
H        -8.45252964274792    8.57392197912922   12.68811071712999
C        -6.98687171665921    7.88484843085881   11.25958616910123
H        -6.24007433122900    8.61397088252316   11.53684456885331
C        -6.71958489925073    6.95391905570806   10.26663067148952
H        -5.75709566266081    6.95066425636347    9.77718520310712
C        -7.68020158036444    6.02490495903771    9.89769699109653
H        -7.46622986826331    5.30382084758870    9.12457339375027
C        -8.91064732487752    6.01396777157276   10.53431448140176
H        -9.68170511763565    5.30803922549506   10.27236941094633
C        -9.15636048091324    6.93313957074258   11.53510771869928
C        -9.25788102748665    4.74985585605337   13.39057605735437
C        -9.85360809211156    3.72047056715709   12.67054694829334
H       -10.91536139264935    3.75979150210640   12.49247755101881
C        -9.06902088063859    2.69788091986857   12.16364818045050
H        -9.52986870459835    1.91052383469581   11.58644856613479
C        -7.70173153576346    2.68479857347548   12.36600308361411
H        -7.07114686012437    1.92169814524994   11.92855235952982
C        -7.10356688968603    3.70516937155579   13.10680371814505
C        -7.88776711127314    4.73619139968854   13.61845513874818
H        -7.42280655088497    5.53260273706914   14.18465329732065
C        -5.05891280095606    4.78245213777198   12.92816966245196
H        -5.64016989504504    5.59875234588796   12.49392709189075
C        -3.67187691228236    4.99942602253822   13.01809018500147
C        -2.75350701511487    4.06435834784016   13.60557454270749
C        -1.39428883208469    4.42318860964073   13.66771382522886
H        -0.75193074975365    3.67771726610239   14.10520757303713
C        -0.89425178567528    5.62031528858705   13.17240323880024
C        -1.82311573173321    6.52736308917503   12.59455193739133
H        -1.49717109418788    7.47986088180009   12.21295052980785
C        -3.14574980741171    6.21340067568133   12.52778527676461
H        -3.83631144392095    6.91873740287241   12.08536581136869
C         1.37423553072222    5.09309826691736   13.95349179622195
H         2.19674500472891    5.72786563681934   14.29581847250188
H         0.89031792483530    4.67919805269053   14.84071551382472
C         1.93032584965941    3.96496523423383   13.08284758182999
H         2.63016679805530    3.36113116942687   13.65465133045248
H         2.44963692159546    4.37247995995307   12.21843206967778
H         1.12473712876417    3.32903727677765   12.72685928135810
C         1.00097060714419    7.06807118345677   12.55577158458641
H         2.03240515380310    6.82231760958584   12.28796618721567
H         0.46009009974255    7.24601857406805   11.62382736926367
C         0.99375423738714    8.33112612794371   13.42010477509642
H         1.43326976199701    9.16169156290957   12.87382987430009
H         1.56864970500867    8.17095118605049   14.32924873201823
H        -0.02198876063655    8.59390927249163   13.70330989277493
C        -6.24132797347924   -1.08615450610926   13.29822791528979
H        -5.90201742161062   -2.07710448528109   13.59586414152001
H        -5.73689876312152   -0.82129188426501   12.36523848603275
H        -7.31346783554119   -1.11075003766208   13.11726429992708
C        -5.89248460672287   -0.06918836906582   14.33969876521035
C        -6.83726613590209    0.86008097275408   14.80458653791891
H        -7.86219899698252    0.81419499688135   14.45480340720974
C        -6.46747208523320    1.84752198979804   15.74946666096724
H        -7.22846848435830    2.53624150954576   16.10133770225987
C        -5.18215257238709    1.86915317891796   16.32347017284519
C        -4.25503073589740    0.88101446993365   15.89378128149617
H        -3.27448198663007    0.84410577011841   16.35763993108543
C        -4.59127449019608   -0.06520224108093   14.92219824073335
H        -3.88052929123769   -0.83355561870508   14.63895926902229
C        -4.81158807298930    2.86227303574680   17.39916657190377
H        -3.75201961733302    2.72045629166992   17.63997263712853
C        -4.99118373778299    4.29656837744723   16.89602903247683
H        -4.43655302499293    4.43418454377719   15.96785285951634
H        -4.61724017968707    5.00427238827715   17.63247446297465
H        -6.04073149188299    4.51570935947912   16.71106542250513
C        -5.63251178856805    2.61405883327862   18.66796978212992
H        -5.49421481216259    1.59350092301553   19.01925681408763
H        -6.69226434890127    2.77268126015724   18.48123453428486
H        -5.31749627384116    3.29526406084799   19.45482441135406

