63
CSD_code = DOSXAM | q = 0 | S = 0 | Stoichiometry = C25H35NSiTi | MND = 8
Ti        2.99609917935962    8.75777895682295    5.61934679344061
Si        5.16842457876059    9.08707807014281    7.51643351839725
N         3.43465739423413    9.08437894503467    7.43195452775257
C         1.69105316521537   10.25950763819111    5.04981339764959
C         1.54273420964345    7.28442738950439    5.51398082403783
C         5.28234658368737    8.70783482938807    5.65778312101829
C         4.84216877138372    7.44983585912392    5.15082080424329
C         4.22401147156316    7.65418672382185    3.89550317930708
C         4.27264417043078    9.05077349879733    3.60962788084634
C         4.91864114775398    9.69030255744969    4.69068244286869
C         5.09429427186968    6.11892708109717    5.80363441992774
C         3.77983981913967    6.59327823778174    2.92749312566632
C         3.87615409834073    9.68272265529412    2.30491346929825
C         5.28297583066737   11.14740496807292    4.75890595628152
C         5.98053614686547   10.73613407645787    8.07919825853945
C         6.01131424426966    7.77972488190899    8.64108744421269
C         2.52904990041328    9.44102406289536    8.51068648584463
C         2.32869257373420   10.96375134325703    8.55467274985792
C         3.02635145812696    8.85894491948596    9.82137085705378
C         3.48129159453988    9.64881700956412   10.84663083974502
C         3.96543125494396    9.09768271960135   12.04239047381327
C         3.99347499636908    7.74568226018982   12.21942503333057
C         3.58040843598601    5.48711894979866   11.35114752504074
C         3.16660758219658    4.65604263247183   10.34971085741722
C         2.70110993202925    5.19873728070988    9.14339147084001
C         2.64850475966048    6.55361887227551    8.96214460174046
C         3.06131894289331    7.44343291706979    9.97820008545748
C         3.54425417431660    6.88851570090587   11.19389555985665
H         0.77447608336108   10.30771344436343    5.65712889010571
H         1.36980257983035   10.09968175643000    4.01038368332728
H         2.16359999338243   11.25076195418088    5.09016600599143
H         1.95027569983551    6.28342721735760    5.71298055432769
H         1.12443958650693    7.25969424720220    4.49629704150762
H         0.69139900383337    7.43290923642752    6.19642387398789
H         6.10518669686019    6.09206226107074    6.20870610269978
H         4.99833813804103    5.30950082432412    5.08062304798536
H         4.39906471960355    5.93271469757725    6.62719093497837
H         3.46727291289909    5.68764446080934    3.44605984690050
H         4.59835475384068    6.33240232986950    2.25084334779471
H         2.94511898332448    6.94178709645760    2.31885650409948
H         3.00800370220552    9.18367758680126    1.87365001585160
H         4.69450392769104    9.60833240408903    1.58328223380044
H         3.63377358579490   10.73688840938481    2.43522178611778
H         5.34297396098840   11.57621044567643    3.75901620464525
H         6.25480018753085   11.26120722933988    5.23584984660255
H         4.55396261850883   11.72399154854910    5.33543155800266
H         5.51495242035986   11.61315482712721    7.64273683758312
H         7.03504464588756   10.75722649549596    7.82416372255736
H         5.90896564592564   10.82282987473458    9.15867445429789
H         6.02178478241157    8.12751703318609    9.66879630074085
H         7.04170596086597    7.61773716935118    8.34145257808556
H         5.50408896162389    6.82217800660903    8.62958749042582
H         1.53570254123437    8.99877046315712    8.29937883220549
H         3.28054482719057   11.46617381235853    8.70375176545116
H         1.63712497293096   11.24068067283997    9.34764509520115
H         1.91666805446088   11.28512858908277    7.59886642187173
H         3.47342913110184   10.72283171393950   10.75744435957476
H         4.31387195345511    9.75980946737599   12.82215359944810
H         4.36238651917987    7.31284168803740   13.13836921362001
H         3.94928650269291    5.08291359326310   12.28343816948851
H         3.19990660809281    3.58368720258150   10.47636884653077
H         2.38222231738718    4.53378757347729    8.35293656144474
H         2.30907633283529    6.95635963032434    8.01707856922301

