69
CSD_code = DOSXAN | q = 1 | S = 0 | Stoichiometry = C28H37ClIrN2(1+) | MND = 8
Ir        5.35199171954606    5.34731643759550   13.22230388676403
Cl        5.12884456307556    7.61956318878083   12.59959531963369
C         9.54772808582427    2.81342888906497   12.03875485250255
H        10.02411862935478    2.37991775122177   12.91469472270975
H        10.00176532881948    2.38011933344110   11.15105785574578
H         9.74427860358837    3.88229922472222   12.03843300080002
C         7.90717241254033    5.75286889211759   12.07366378022589
H         8.70742386547117    5.78512459976682   11.34289678760757
C         6.54474577269985    7.08837882168750    9.04908547749341
H         6.07272050512756    8.06150047576236    8.94630749169473
H         7.32741517110139    7.17126728895100    9.79929982081231
H         6.99905311826031    6.81910507419212    8.09815049189478
C         4.19503170723585    4.58820614949437   16.40233195188908
H         5.17904138651385    4.24372281053578   16.71449047509511
H         4.02908258236090    5.59257201138387   16.78413726228742
H         3.45535397462995    3.93115640228255   16.86274872855637
C         7.84346409605252    1.01303656126744   12.28691969306252
H         8.07731772078801    0.76047744487130   13.31848807445644
H         6.82039396503335    0.70833592199317   12.07692771267518
H         8.50481343481829    0.43279633023869   11.64985859819466
C         4.31524856168210    6.10403388104041    8.48483330435754
H         3.74482999279268    7.01195542519742    8.66212392032085
H         4.65441549103042    6.12393602608714    7.45250609963810
H         3.65290228534903    5.25105290589497    8.61494090968628
N         6.81541595577186    5.08891606181518   11.85550561911536
C         4.03627819881159    4.52800912856464   14.92108798023219
C         4.50803129315996    3.44178860456613   14.09653268911476
N         6.99589036981866    6.15768613657588   14.17921947121366
C         6.76114609166109    4.25391514514519   10.71071318882382
C         9.09389252383475    7.23888870586438   13.70859049324325
H         9.88618388182730    7.43154934382731   13.00328403648298
C         3.24900511873600    4.85330119845748   12.76641666044432
C         7.38768407357111    2.99770462235249   10.78649597039047
C         8.02987186382399    6.41482293042517   13.33780157051796
C         4.00703760958305    2.62495710613860   11.66991073682517
H         4.90670929903399    2.01758434558224   11.71006562626707
H         3.14383800506598    1.96344141788042   11.75404767720637
H         3.96971797074634    3.11112858025450   10.69829258853526
C         2.46665063412657    6.57514326759309   14.54295541477848
H         2.66691501164234    7.43626840624234   13.90729687684890
H         1.40697412405710    6.33488755502056   14.45316003835556
H         2.67362731293101    6.84945898415087   15.57330705646030
C         3.96665334699915    3.62039916563752   12.77840966943347
C         6.80347694502131    2.62178964091698    8.47756785514473
H         6.83219821979513    1.99144406682389    7.60272573447683
C         2.37140785182524    5.37236371044534   11.68046222987928
H         2.48517931594061    6.44896701302364   11.57320711879803
H         2.59370457137600    4.89862233732325   10.72952650463342
H         1.32968643007448    5.16986283100205   11.93287740241604
C         8.04446567663005    2.51545668255593   12.06247839581503
H         7.59558844209554    3.05236377226654   12.90817415320945
C         8.03059609808973    7.53360061901521   15.82217483644691
H         7.99522218368397    7.95579504277174   16.81297664938777
C         5.14504519355503    2.20505759192522   14.63209682587475
H         5.92526441221503    2.43799598306146   15.35374455491662
H         4.38884442097541    1.60746196168330   15.14374732474555
H         5.57139505697222    1.60172615570967   13.83787256884954
C         6.13482496742555    4.68484419446536    9.53284962223230
C         7.40009340661666    2.20088827719537    9.65083794325402
H         7.88799750326944    1.24080215384587    9.68005333767327
C         6.17210434683767    3.84924189793287    8.42470092064054
H         5.71257837867080    4.16770686987823    7.50416716890144
C         5.49478884794968    6.04845925387643    9.45611312439911
H         5.12898429943400    6.31028302198470   10.45269410588061
C         9.09415375678671    7.80570299683256   14.96672575261436
H         9.89808138517447    8.45258769203882   15.27972271849606
C         3.27635702624175    5.40273319415037   14.11065176959859
C         7.00509851031944    6.71519577697972   15.38654343104823
H         6.16298709459247    6.50252470857850   16.02836436829722

