86
CSD_code = DOTDOF | q = 0 | S = 0 | Stoichiometry = C38H30N3O12P2Y | MND = 9
Y        -0.91682771028430    1.70202638584049    7.86347202764675
P        -1.58199327815889   -1.15405339274797    5.92253836126887
P         2.05898725426606    0.09045951001264    9.28916827597500
O        -0.96164480660567    0.06062217373048    6.53356625023712
O         0.96585331580432    0.26066331108477    8.28839838805157
O         2.52910623009018    2.57415654681608    8.23834156130552
O         0.86599378390385    2.50125767545213    6.94035068890248
O         0.57084610056764    2.67519738079003    9.01913955811216
O        -2.91957654431247   -1.13834807708249    8.04936147091420
O        -2.96508202796648    0.97328745770059    7.89970148523473
O        -1.55275990435077    0.03609891712652    9.14472607948823
O        -2.48145192659229    4.54896435874334    5.99650189694627
O        -1.61672342932897    3.70225907268856    7.74818547583618
O        -1.71759862253570    2.56504996406721    5.96917831695663
O        -1.97628833530130    2.52412394353352   10.12202636663114
N         1.34849433446502    2.55881973382333    8.06622099390117
N        -2.47396332521262   -0.06266600831826    8.33391673096942
N        -1.95729582976711    3.63426301544048    6.55068569120998
C        -3.33379750025864   -1.03327192452228    5.45145346618370
C        -3.81889850518734    0.23520239936423    5.15843774986721
C        -5.11546738867176    0.38304136823719    4.69770513205193
C        -5.91648736767304   -0.73078126310364    4.50687792209885
C        -5.41449512144528   -1.99733800243492    4.75924431537719
C        -4.12109884709737   -2.15348824530082    5.22433487305315
C        -0.83779958820203   -1.30837259760619    4.26255343676996
C        -0.95977146830131   -2.46647806383574    3.50661398779565
C        -0.41428802607915   -2.51912400413840    2.23719653925189
C         0.24744039428357   -1.41555080284136    1.72063443961048
C         0.36422023012909   -0.25798307803827    2.47249082192032
C        -0.18078593776979   -0.20125757509432    3.74381236622573
C        -1.00410057001096   -2.68305412182637    6.73105431048213
C         0.37980428235570   -2.81849041566498    6.66857838930188
C         0.99121552950109   -3.95649372336311    7.15781180738549
C         0.21774799454106   -4.97054108011514    7.70046872311611
C        -1.15724744957500   -4.82628715314093    7.78258915983414
C        -1.77464488426588   -3.68112760803903    7.30548404128792
C         3.72040965274723    0.30253761286365    8.59928753166824
C         3.86106555575150    0.15068986843723    7.22659940626722
C         5.11680962378983    0.22837202618166    6.65370211887727
C         6.22768422986975    0.45122345163580    7.45200317272744
C         6.08512640351784    0.59720127409166    8.82245522956956
C         4.83073315571981    0.52063970121855    9.40193065917658
C         1.75405719503203    1.04882655118099   10.82178970661484
C         2.31410613822749    2.34762326996558   11.07329155072359
C         1.84937287566206    3.12275280966991   12.06990255261558
C         0.67759705437655    2.73889153107313   12.84558575598366
C         0.23721631419355    1.29515989235450   12.72455222578904
C         0.88111282585456    0.49610443744792   11.69953301317079
C         2.02845147865285   -1.64059394158716    9.86859763466027
C         0.78559924233804   -2.26100027202739    9.94128449552846
C         0.68116433395767   -3.54806173032642   10.43773113530264
C         1.81910134066872   -4.22949299372305   10.83785304514150
C         3.06075095712713   -3.62268079610905   10.74197657948318
C         3.16694557771604   -2.32656453264798   10.26761967543336
C        -1.21187866447853    2.49460171193033   11.01438431719003
C        -0.60598091061096    2.41867114149505   12.13403391114053
H        -3.17927777454329    1.09603494765364    5.29144876219070
H        -5.49726669119520    1.36978765050622    4.48314923654041
H        -6.92968829451183   -0.61435403320786    4.15114053097053
H        -6.03288261039873   -2.86726359389749    4.59151839863280
H        -3.72722825412820   -3.14082546997932    5.40857603650264
H        -1.47588882009984   -3.32245265377981    3.91900169356765
H        -0.50498893907007   -3.41974351906956    1.64753628557675
H         0.67129714075991   -1.45997903302346    0.72802734137655
H         0.87763999715658    0.60133100878315    2.06722559004015
H        -0.10184063948245    0.69357582462096    4.34877604564859
H         0.96310087986558   -2.01713012380303    6.23425338152806
H         2.06571264836376   -4.05719565005348    7.11405091541422
H         0.68992111958356   -5.86946022537977    8.06864790763398
H        -1.75567346622018   -5.61190576403061    8.22097942708552
H        -2.84009106608970   -3.54930784652425    7.40177006366426
H         2.97663442108846   -0.00422418774531    6.62400218628043
H         5.23144647507904    0.12027036471092    5.58536466044275
H         7.20831406281302    0.51702003335420    7.00426973839125
H         6.95341847880260    0.77491429722751    9.44002831577565
H         4.70940552591732    0.63811954047540   10.46981939258022
H         3.15024430863153    2.66480229522326   10.47024266678690
H         2.33391708280726    4.05339361445713   12.32312938599635
H         0.53736822440707    3.24076154980074   13.79633239261452
H        -0.19632804525835    0.78617054190076   13.57624550693497
H         0.58278997475930   -0.53846178363777   11.61399096681901
H        -0.09020424206736   -1.72337845595955    9.60570322201741
H        -0.28829398671572   -4.01700321218063   10.51234234180039
H         1.73959284577679   -5.23532119530409   11.22326080125208
H         3.94880579320490   -4.15755951489899   11.04536580617840
H         4.13437841601719   -1.85030249644893   10.20256618115353

