118
CSD_code = DOTFUN | q = 0 | S = 0 | Stoichiometry = C54H45N3O12P3Y | MND = 9
Y         6.44922821018752    5.06343250839324    3.66009682754169
P         3.01169247535547    4.86158242879569    3.01367398895804
P         7.20338600005693    6.09417559836572    0.33402618495991
P         5.84653676100260    5.53942196028419    6.87191060562870
O         4.39446051175047    5.40517188093874    2.85528178646678
O         7.16990370261967    6.11844950585330    1.82684827670264
O         5.30304639244364    5.43572208615321    5.48341344512329
O         4.05440734380345    2.82939527904387    2.16794389985931
O         5.97950196277556    3.63495918535865    1.91294889433090
O         5.28667309580164    3.16794769502854    3.84388561604468
O         7.99191150226934    8.40896660785711    3.61933349523085
O         7.99631351323682    6.39051952409457    4.26291902040817
O         6.16445966880885    7.37141132309460    3.84942663421822
O         9.58725856079468    3.54804935424390    5.00066227566624
O         7.53710365807910    3.99868531846830    5.31423336170588
O         8.31638190741156    3.95633396954995    3.34624019281498
N         5.08553006634070    3.23790484331313    2.63705597433167
N         7.39470082660561    7.40941546783259    3.89356662817510
N         8.51446090849631    3.83838755863939    4.56179524689001
C         2.22796855102176    4.44494018988161    1.42577767819900
C         0.99951165788833    3.80917883105734    1.33269973767557
H         0.49924678650322    3.46000237279449    2.22347230443913
C         0.42573317294927    3.60852678627494    0.08929958067076
H        -0.52848055182939    3.10765558050171    0.01276297260186
C         1.07030926431268    4.04577873720805   -1.05628367672294
H         0.61583270508290    3.88846056458044   -2.02354664830232
C         2.29998644003446    4.67675776932781   -0.96153183716593
H         2.80506239912264    5.01676228871988   -1.85448822786094
C         2.87845018924860    4.87388797471921    0.27831291764545
H         3.84424011777616    5.34683341212227    0.37797154063951
C         1.99347836746982    6.29847240568510    3.53191264367445
C         0.63080392965270    6.19224455789189    3.77885250391314
H         0.14090031646256    5.23443027232166    3.68293875735570
C        -0.09535897112943    7.30567216474432    4.15934883259811
H        -1.15495321312785    7.21816173083937    4.35107740045821
C         0.53451252817690    8.53271541652450    4.29827595375038
H        -0.03623290538371    9.40063663683449    4.59571413231875
C         1.89391020135655    8.64227634357893    4.05947341428013
H         2.38963530324542    9.59585191915928    4.17335979038757
C         2.62125490514364    7.52810434885064    3.67556895700387
H         3.68612000065710    7.59461846950219    3.50294978190427
C         2.61832685938815    3.70862153385929    4.38457475579265
C         2.60230845442969    4.28565766912073    5.65023180886317
H         2.84020697058552    5.33265362769576    5.76038574268121
C         2.29089961590178    3.52602200504306    6.76306327553732
H         2.30739954215314    3.98097382738233    7.74325359894357
C         1.95553813962533    2.19051287384924    6.61451233464341
H         1.71324728893775    1.59311213468323    7.48121909803469
C         1.92231196693999    1.62621121923271    5.34994907064433
H         1.64225438104483    0.58976566938495    5.22892485220510
C         2.24966074779947    2.37829628814641    4.23433989440930
H         2.24240348501059    1.93136434077925    3.25289186234260
C         5.79380451606113    7.01897314048713   -0.34005457519448
C         4.96634505096449    7.67103759064875    0.56638294214965
H         5.19671423213384    7.61237771242734    1.62123741114003
C         3.85782728738270    8.36502978734104    0.11334695533402
H         3.20422272471961    8.85655431534844    0.81861209609158
C         3.58594220734128    8.41992568324658   -1.24385985956889
H         2.71676542162769    8.95374112726793   -1.59895809200388
C         4.43121536886368    7.79930215523589   -2.15125928944437
H         4.22420748634152    7.85930902388571   -3.20995517470249
C         5.53798179084742    7.10036427467779   -1.70396109691405
H         6.20491509104707    6.62103806031566   -2.40625855132195
C         7.25290200866640    4.41219729224299   -0.34559297699335
C         8.34012765955176    3.65130300140707    0.06896408233096
H         9.07200226552538    4.09514875333890    0.73072983287526
C         8.45090462215716    2.33582178246506   -0.33859579669291
H         9.28803070435615    1.73768913870071   -0.01047662836760
C         7.47925260856609    1.78237464948465   -1.15846635668710
H         7.56134298172868    0.75152353471312   -1.47175843427007
C         6.39611296545780    2.54193244304483   -1.56682092034935
H         5.63300395064236    2.10392028919219   -2.19396660951978
C         6.27784362387626    3.86004953004465   -1.16056426609497
H         5.42247353018364    4.44572830756735   -1.46371026290208
C         8.70688154725051    6.91495164856318   -0.26606401039361
C         9.22475453811327    6.64044398132574   -1.52552941171359
H         8.74380673294736    5.90336736305008   -2.15362015814357
C        10.36278323435422    7.29582897872562   -1.95817302185629
H        10.77079674390710    7.08070914348305   -2.93504102630982
C        10.98278858195337    8.22369728252069   -1.13555489581544
H        11.87418661521547    8.73064314314767   -1.47501386840682
C        10.46527690387241    8.49764005848977    0.11983862932393
H        10.95008170270188    9.21789419381342    0.76138078703993
C         9.32397887125925    7.84777920231112    0.55736747295591
H         8.91587338780355    8.05370331980452    1.53690238119216
C         7.36737844024385    6.53585420874147    6.96430351381041
C         7.23336323306742    7.89453417451470    6.69402916899490
H         6.24796588484982    8.31224595588491    6.53145961476496
C         8.35622311355829    8.69835857058433    6.62246054992301
H         8.25441081147312    9.74811942593388    6.39185663949268
C         9.61190479688295    8.14736113072702    6.82243350684303
H        10.48956798622589    8.77169834692684    6.74690049064708
C         9.74370196795184    6.79809344074933    7.10545396109116
H        10.72272903752294    6.36687889844565    7.25038068844721
C         8.62438368641289    5.98723344190486    7.17997114928969
H         8.72847702246328    4.92985170572999    7.37145554215589
C         4.60039132613615    6.45700273967432    7.84095109515857
C         4.39991844335048    6.29468164724782    9.20397147167202
H         5.00497208224944    5.59413291386489    9.75939980609229
C         3.41212795347708    7.02094263998085    9.84730366064414
H         3.25616515900447    6.89106736705393   10.90828874812506
C         2.62087468293655    7.90779206600788    9.13533515957877
H         1.84949793304512    8.46840672017297    9.64239010300363
C         2.81640025934096    8.07126013847412    7.77344489788662
H         2.19744490339666    8.75569004107769    7.21182482739045
C         3.80462195926021    7.34937425753142    7.12978400106063
H         3.96354004598347    7.45948363803376    6.06551210306120
C         6.07483303742074    3.95129310204721    7.71070449182245
C         5.52985081154566    2.81607606313766    7.12728837992796
H         5.05491453550968    2.89876182274362    6.16156374075920
C         5.63964451640295    1.59659204742421    7.77145711092675
H         5.22145470988569    0.71072501433756    7.31682564045570
C         6.29091561053191    1.51038450000447    8.99164216604616
H         6.37937515061332    0.55683272887719    9.49160174661000
C         6.84310848705100    2.64330737316126    9.56787795215802
H         7.36308833129851    2.57156076456210   10.51219900423872
C         6.73563828285834    3.86664799641748    8.93032556905643
H         7.17852312606530    4.75116315217967    9.36756903336620

