92
CSD_code = DOTGEY | q = 0 | S = 0 | Stoichiometry = C46H42CoN3 | MND = 8
Co        4.63959454347802    8.15827970100001    7.85696197494373
N         6.88702996748883    9.65233772876088    8.94774926213506
N         2.89969776277806    9.24432303115894    5.79947526769936
N         2.89466920347487    9.26955185891397    9.94623194192132
C         5.84322636061677    9.64035058543299    8.26341571722588
C         5.43623880839122   10.88555337738435    7.60242959939563
C         4.37466018577478   10.79088623029507    6.76489785361994
C         3.80652160876590    9.44301539653661    6.63430316726938
C         3.58587061833786    8.83536958008267    9.10006765819604
C         7.65875663722923    8.82021156700786    9.69520657583340
C         7.26449890123243    8.34093073276383   10.95468604753568
C         8.15541865237213    7.56907946734901   11.68293074116188
C         9.41530454209788    7.27243215913593   11.19495558739928
C         9.81403221533236    7.78463423210192    9.97140098648447
C         8.96182839095826    8.57396121899777    9.22251706434281
C         5.90560322712865    8.65342976481208   11.50583375030945
C         9.38924608788716    9.17496481927519    7.91808710053323
C         6.24191354895432   12.09384350596062    7.81365917649233
C         6.60115552299083   12.49711614323667    9.09734067522279
C         7.38275587199263   13.62178021250171    9.28602179715346
C         7.82653372651203   14.35262554812144    8.19706642818741
C         7.48456695733200   13.95185629910103    6.91558156236882
C         6.69886117956601   12.83207213609579    6.72320294439351
C         3.78590360628600   11.92723221022193    6.04484641706849
C         3.41630461828941   11.82531768343122    4.70568346157949
C         2.86044676154584   12.90544807650013    4.04519346410489
C         2.65751290471569   14.10288183058817    4.70914803241120
C         3.01856886759494   14.21427551658159    6.04199665667655
C         3.57907623724207   13.13958371668434    6.70412728074250
C         2.12573662560772    8.20877039676031    5.36397919394572
C         2.38625629162311    7.65151460402313    4.10038770073783
C         1.56293583789464    6.64496445759470    3.62467784496815
C         0.47343217767436    6.20713586044557    4.35565620857055
C         0.19143852852136    6.79607584680716    5.57556553130593
C         0.99834545711264    7.79468176481018    6.09341383391186
C         3.52527643981605    8.14471892523785    3.25477332215538
C         0.67618331979829    8.41807553265177    7.41852456672125
C         2.09933561971499    9.75459984360034   10.92532598442176
C         1.53144841928025    8.86701729769858   11.85016200973993
C         0.72365986838141    9.39220940556798   12.84475545665578
C         0.48551249595739   10.75417104560075   12.92156958744001
C         1.05363332221125   11.61618352139283   11.99844045065914
C         1.86709038969381   11.13566892787870   10.98657504773534
C         1.80822255342554    7.39996624154376   11.74491713293152
C         2.49258457180037   12.03424634671323    9.96744754659632
C         4.48074464815273    6.03247101998098    8.38310108005959
C         4.01978147352664    6.23004566291193    7.06144645958562
C         5.08560777347272    6.77333965481222    6.31264267096169
C         6.20470038768251    6.90383644548633    7.17184910925146
C         5.83347592175653    6.43115740375840    8.44941661080802
H         7.85165404601847    7.19135453026149   12.64945577253808
H        10.09008305609428    6.65883162243508   11.77282060363510
H        10.80723731568045    7.57749391343659    9.59883900932301
H         6.25683812030199   11.93143715058621    9.95011243609227
H         7.64952840532206   13.92710486737820   10.28735120235614
H         8.44021881195120   15.22881630798789    8.34565133976116
H         7.83515627177690   14.51339741359465    6.06200789739318
H         6.44292651546266   12.51413074790920    5.72351524984222
H         3.57856562806310   10.90026152643608    4.17848279454403
H         2.58471852113151   12.81170041241673    3.00479928736863
H         2.22158428470607   14.94497264485305    4.19212332699359
H         2.86313398349329   15.14462610665910    6.56869753857847
H         3.85609028927986   13.23530950996738    7.74254039143672
H         1.77850055239982    6.20302665240189    2.66204469172030
H        -0.15864250576623    5.42032837266723    3.97208999203704
H        -0.67020359185810    6.47254038102654    6.14275740733514
H         0.27609054165688    8.72605604257179   13.56743604744448
H        -0.14656688826086   11.14543359814275   13.70415903236796
H         0.86293982842706   12.67716579379674   12.06300702491457
H         3.93282318099316    5.53681048748353    9.17081021199222
H         3.07211774636820    5.90042529403618    6.66653434465879
H         5.10094853379435    6.89971757088641    5.24254472579734
H         7.20855613034896    7.14743579748861    6.86084592762249
H         6.49829471267863    6.28253328675930    9.28504729491083
H         5.89818864745558    8.54993826086807   12.58885165689082
H         5.60246955116736    9.66586910576070   11.24497873154400
H         5.16595312361500    7.96923123298000   11.08893213373926
H         9.17479837348928   10.24386397765097    7.91500622172166
H         8.84036210854547    8.73567413749085    7.08521258025905
H        10.45235169667577    9.02020807673652    7.75134304014626
H         4.30507716919593    8.60049409773420    3.86082706029006
H         3.16193782087259    8.89595705587277    2.55108204465798
H         3.95528374142675    7.32871406776255    2.67630329416013
H         0.94728105934410    9.47230667677179    7.42632294425574
H         1.23654615335435    7.92234384507481    8.21134892267480
H        -0.38477378736203    8.32158886510049    7.63868658759385
H         1.52662435879912    7.02740208802869   10.76006093039033
H         1.25485745371132    6.84849129464630   12.50003679654079
H         2.87230301410581    7.20419530430956   11.87859368218294
H         3.57602020746734   11.91275635764612    9.96496944372306
H         2.25324266275412   13.07447210779018   10.17047603245834
H         2.13698351585267   11.77958888128848    8.96864880455121

