59
CSD_code = DOTLAB | q = 0 | S = 0 | Stoichiometry = C18H28CdN2O4P2S4 | MND = 6
Cd       13.36079796182404   12.31925158949633    4.97669627636930
S        11.40357971357716   13.60882520789744    3.89303727520687
S        11.41359574188452   11.73715513984137    6.75528163942227
S        15.46208369012112   12.35852346128479    3.28797288868086
S        14.86756506892720   14.01750833838962    6.21439038145177
P        10.59892482144140   13.23558803499146    5.70664513578402
P        15.80129767159990   13.97517256533681    4.42588142596035
O         9.02597513128688   13.04173399682420    5.55422036100968
O        10.47289893775029   14.57210268333456    6.56280292275914
O        17.36646873892322   14.18196903131313    4.63145103644378
O        15.60802550800504   15.35835613100915    3.65871563373108
N        14.35665475723697   10.45934214045311    6.03444613451206
N        12.87064213892921   10.36223194641865    3.73681461979044
C        14.83662659235087   10.52351004434537    7.26515257633781
H        15.05808865246065   11.51808933319321    7.63625577516746
C        15.04754949926555    9.39872976381639    8.04818952905063
H        15.44105221925955    9.49455956113267    9.04743835785367
C        14.72486070108208    8.15952171719698    7.51925618601743
H        14.85458583395149    7.25974142769277    8.10238952049942
C        14.22492922155588    8.09104503059203    6.23037946764318
H        13.94210239135249    7.14134637267146    5.80443359142284
C        14.05859630658378    9.27118898157167    5.50668089955199
C        13.53140156811640    9.27077298141865    4.12686343696586
C        13.72455163512619    8.19021979284023    3.26714937554743
H        14.29490903818683    7.33155238220614    3.58442618765879
C        13.20523335057174    8.25121477674825    1.98559684859617
H        13.35073997612608    7.43077492195090    1.29846989455754
C        12.50436548424365    9.38226053636507    1.59986886381297
H        12.08186558508028    9.46815720111287    0.61161186133362
C        12.37071387559107   10.41701533287726    2.51324193066574
H        11.84244342461439   11.32902446560336    2.25806638023791
C         8.54807162693499   11.92345671241177    4.81117125772244
H         9.11506606057085   11.02753370085667    5.09725946551988
H         8.70811382667252   12.11250344785518    3.74302141760821
C         7.07290118844927   11.74937201415936    5.11887821932423
H         6.67657148612626   10.91058645488958    4.55361060946540
H         6.53096987582114   12.65233182065736    4.85160675132832
H         6.93745798324122   11.56319615564973    6.18078618568524
C        11.61812565906268   15.17887506735356    7.15993311299967
H        12.21241578692154   15.67421777153507    6.38179582714528
H        12.23989212677493   14.40912139998940    7.63693370624493
C        11.13254569540782   16.18654684523814    8.18374221047114
H        11.98707519018703   16.67436186294741    8.64364305612142
H        10.54912090190055   15.68370473359004    8.95041694451504
H        10.50642241922897   16.93303041210437    7.70202254125111
C        18.11948523866567   13.13748039219527    5.24122712664394
H        17.91741262804857   12.19399043282290    4.71751063503465
H        17.80342423685627   13.03161995328873    6.28643524073795
C        19.58869161993464   13.50424699283990    5.15364022840145
H        20.18910057960069   12.72683144228156    5.61777565954409
H        19.76508485338209   14.44769338773831    5.66318090247052
H        19.88098292594169   13.61093541300163    4.11260975478188
C        14.32554637192122   15.88081696063643    3.32691200501874
H        14.45313113653984   16.96778243179453    3.32806430553486
H        13.59623722137268   15.60985435096213    4.10341612014715
C        13.85553996436286   15.38921582201769    1.96974139566675
H        12.90125271609029   15.84922146803562    1.72950722607428
H        13.72424022549548   14.30814241607068    1.98717837547050
H        14.58669521745220   15.64384524716733    1.20685330496377

