77
CSD_code = DOTMUV | q = 0 | S = 0 | Stoichiometry = C38H33ClO2P2Pt | MND = 4
Pt        3.17579142058974    4.00698721689073    1.35829855811702
Cl        5.38941154266426    3.60339358579026    0.84266295900253
P         3.80746360221286    4.48696870450776    3.49692072749298
P         2.54264962131183    3.28167371907612   -0.71120703067908
O         1.16312587434690    4.39375988622604    1.83897606884374
O         1.41638965587592    2.29583176271751    2.45570093940953
C         0.72563287607978    3.30834488061949    2.32680606735361
C        -0.72999541106008    3.31186769686036    2.76163785546408
C         2.44195571614413    4.59782578035038    4.69032171964909
C         1.57912902779571    5.68275014726947    4.55059338279757
C         0.47311203164514    5.80047739401222    5.36876137657253
C         0.21641972570098    4.83271626352088    6.32834491172534
C         1.07007164789806    3.75156055612696    6.46739296795699
C         2.18062948247742    3.62859441868711    5.64951625331868
C         4.71208834870586    6.03127805863411    3.80011636367129
C         4.83078664458178    6.55987697131494    5.08239513262281
C         5.53833313302365    7.73107354754311    5.28034126922546
C         6.12688124472070    8.37882715263355    4.20486012662520
C         6.00636070453115    7.85678417742428    2.92753737547816
C         5.29844503952391    6.68566295862895    2.72321185719036
C         4.87870632470987    3.16796377733572    4.13181036279205
C         6.09394845239116    3.39645496369462    4.76336327011529
C         6.86922455456334    2.32236257970776    5.16594577204785
C         6.44150714455851    1.02591109339181    4.93495795969623
C         5.23201853527000    0.79614866320554    4.29734760906076
C         4.45219433934697    1.86222313633143    3.89256329899919
C         2.90085418017666    4.30810255255679   -2.16544902198889
C         3.96214448212592    5.20378170706236   -2.09116886849158
C         4.28535211759568    5.98590817365650   -3.18534265327017
C         3.54942214432515    5.87956070152856   -4.35435870402391
C         2.49011977577943    4.98878825993712   -4.43067819521861
C         2.16332120167716    4.20239094601293   -3.34092988468998
C         3.33317353438765    1.68625722142698   -1.06037125726445
C         3.82256085938465    1.32310468033253   -2.30799075640284
C         4.43075011822057    0.09033706809270   -2.47190020422578
C         4.55551299385863   -0.77534378403440   -1.39811281588735
C         4.07096943022201   -0.41213768208190   -0.15091282099439
C         3.46281939042085    0.81642268554897    0.02060726620386
C         0.76464945791554    2.94609835324382   -0.86751726982679
C         0.23586846686888    1.66196286457781   -0.85792797384557
C        -1.13651489445752    1.48205829801096   -0.89210648903440
C        -1.98325410794993    2.57687086871977   -0.92747732725575
C        -1.45826399368302    3.86044802992812   -0.92739786748439
C        -0.09035898716462    4.04583770756024   -0.89291189644725
H         1.78109518633342    6.42189235637818    3.78610767041692
H        -0.19584443783430    6.64103279472045    5.25553419709036
H        -0.65318358003239    4.91953183874179    6.96348800867665
H         0.86802123983489    2.99555750850483    7.21241209583711
H         2.84073163174030    2.77956091676312    5.75479281028236
H         4.36659881741373    6.05240637757865    5.91775822972348
H         5.63234457686154    8.14090121038688    6.27558795436248
H         6.67851041120232    9.29358424232112    4.36528384238065
H         6.46376828103952    8.36362484253108    2.09078556980806
H         5.19823332133498    6.26054169422266    1.73250778299141
H         6.43816333726257    4.40711048505788    4.93059098829660
H         7.81611207595205    2.49979645787913    5.65510030968472
H         7.05574682244357    0.19295163040557    5.24476773776640
H         4.90217463318316   -0.21528223700972    4.11017312994944
H         3.50599478717322    1.70040122693404    3.39136160555133
H         4.53053933949020    5.26972370619827   -1.17241287128509
H         5.11058715919465    6.68004301121333   -3.12700442640868
H         3.79932056507750    6.49167435495604   -5.20855226260166
H         1.91764982478270    4.90621149135422   -5.34331746216982
H         1.33562317351371    3.50804866791696   -3.39743457949589
H         3.73763959246036    2.00307375104431   -3.14390814869924
H         4.81469892529347   -0.19239834801306   -3.44141731424210
H         5.03742021995456   -1.73284622697465   -1.53238608899823
H         4.17466056311476   -1.08532674120626    0.68724975707304
H         3.07777690505366    1.11787339418225    0.98775618535441
H         0.89528225444666    0.80659945287710   -0.82032452171296
H        -1.54544396986868    0.48202993201698   -0.88533429361935
H        -3.05354467173753    2.43154913234023   -0.94862034523156
H        -2.11892912547554    4.71492540757178   -0.94627424922141
H         0.33131784048499    5.04232938325510   -0.87455458030230
H        -1.18891746627792    4.26537041561829    2.51977742884229
H        -1.25264743152580    2.50437108050765    2.25499755991777
H        -0.77590825129733    3.13856904519858    3.83437786551203

