75
CSD_code = DOTNAC | q = 0 | S = 0 | Stoichiometry = C36H30N2O4P2Pt | MND = 4
Pt        0.00009875543593   -0.00053716393440    0.00030072503351
P         1.22224645856397   -1.15298700076410   -1.60061485584803
O        -0.10142006176083   -2.57183547625258    0.98851276946971
O         0.86568111853960   -1.17838818459988    2.31992623112153
N         0.28863644081228   -1.43971196000103    1.26416299686003
C         2.27931770354249   -0.29816645631736   -2.81176459973866
C         3.66627378728728   -0.30327533474814   -2.70237351237593
C         4.43517952153472    0.38115286363590   -3.62689224388851
C         3.82882851459421    1.07773268176903   -4.65865525630558
C         2.44720067044468    1.09017907384906   -4.76646629476264
C         1.67162590500104    0.40756820114877   -3.84876004658432
C         0.02953013268055   -2.04463066526566   -2.62819335582496
C        -1.27394944737048   -2.15676244534287   -2.15706157924569
C        -2.22204973475806   -2.83188541166535   -2.90282268901837
C        -1.87134258192895   -3.39576551010973   -4.11868907066251
C        -0.57330311905558   -3.28287567280744   -4.59200496441186
C         0.37927256662427   -2.60672433428463   -3.85229874234963
C         2.32454069793886   -2.40694406460753   -0.88466202862999
C         2.36958760260132   -3.72498287965162   -1.31563396567156
C         3.22493972639061   -4.61877174573736   -0.69493119233502
C         4.03102823376949   -4.20369218240096    0.35160328630429
C         3.98348497128821   -2.88904274806900    0.78825408156419
C         3.13016068478419   -1.99307650391641    0.17457050062168
H         4.14497307383548   -0.84664318626202   -1.89982220632262
H         5.51179161597569    0.37085037855623   -3.53894186735058
H         4.43236929144190    1.61313651781259   -5.37652478182239
H         1.97076175921645    1.63715107118661   -5.56615741315860
H         0.59360126328318    0.42821123715294   -3.92514646584355
H        -1.53559513646251   -1.71236108368508   -1.19892202660209
H        -3.23511498222451   -2.91780970035412   -2.53934915371172
H        -2.61177794058289   -3.92148004064891   -4.70344765497442
H        -0.30445128936216   -3.72033274491574   -5.54248523691505
H         1.39015491725634   -2.50426651552081   -4.22449441571439
H         1.72699926362372   -4.05416920707420   -2.11919872397414
H         3.25427096975387   -5.64699562791817   -1.02430179121064
H         4.68931579397559   -4.90857543167405    0.83738394652958
H         4.59897281943378   -2.56734958177502    1.61495165370225
H         3.06836360707883   -0.96740235768787    0.52394333151967
P        -1.22214087631361    1.15243153589447    1.60120082037585
O         0.10221428744858    2.57077555839376   -0.98782519763007
O        -0.86610396907646    1.17789718461998   -2.31891416669088
N        -0.28828706886706    1.43880952631192   -1.26350240992705
C        -2.27909655285622    0.29832056500472    2.81294598477254
C        -3.66605660435806    0.30315218103066    2.70348632129632
C        -4.43492029036762   -0.38064682504409    3.62849197220153
C        -3.82852277655299   -1.07628491729890    4.66085705938231
C        -2.44688685909900   -1.08850479157588    4.76870997598431
C        -1.67134962096825   -0.40656029861287    3.85047806860196
C        -0.02955321775287    2.04497767987556    2.62812504863579
C         1.27397554207881    2.15676978448065    2.15707485963387
C         2.22185883846425    2.83284045127211    2.90225460786210
C         1.87091454655411    3.39791324476991    4.11747692406980
C         0.57285970048085    3.28526307967425    4.59077148038193
C        -0.37953425420694    2.60826386088815    3.85160880681475
C        -2.32462871098265    2.40572028063164    0.88436320104810
C        -2.36976565344380    3.72415480162253    1.31409458097438
C        -3.22513490066027    4.61730786037953    0.69249679554518
C        -4.03110494225878    4.20121459589783   -0.35372748793822
C        -3.98350024427232    2.88615373134486   -0.78911599977542
C        -3.13018575127294    1.99081860588650   -0.17452028495930
H        -4.14478928524652    0.84580568152336    1.90047429062126
H        -5.51151663841649   -0.37040995774659    3.54059987061114
H        -4.43203519236840   -1.61099902438917    5.37927210095569
H        -1.97042166969379   -1.63475177019451    5.56888803674475
H        -0.59332816721932   -0.42714505017717    3.92679015141066
H         1.53588494486124    1.71123755685973    1.19951561320476
H         3.23503882270885    2.91834979285156    2.53893395835530
H         2.61117042498743    3.92443180208938    4.70173541908362
H         0.30373537538308    3.72392206193299    5.54064689332426
H        -1.39052188369078    2.50617920848148    4.22366514697089
H        -1.72721394902732    4.05415076534249    2.11735711304417
H        -3.25458517060392    5.64583536710168    1.02093137170976
H        -4.68949455188858    4.90559077812278   -0.84013466076653
H        -4.59893401517035    2.56364450382180   -1.61553041259202
H        -3.06824323953930    0.96482978181374   -0.52296924081429

