81
CSD_code = DOTQAH | q = 0 | S = 0 | Stoichiometry = C34H38N2O6Zn | MND = 6
Zn        1.80888444844430    5.37120688708948   12.30084164515178
N         3.64301627425432    4.89196517084328   11.34351770115376
N         3.21243624337751    5.89177459831518   13.80635944735684
O         0.28921138456070    5.20210441502961   13.61835116075737
O         1.47526238139181    3.48169854191014   13.00821073074723
O        -0.07797823330654   -0.36329721647562   15.95311416683198
H         0.28681966463841   -0.79476705145757   15.17245345909816
O         1.73673673038235    7.26662895861128   11.51253052649123
O         0.81395608142972    5.54151739858998   10.55733407179166
O         1.19079685721184   11.12193722535127    8.24363686119364
H         1.24094029518869   11.55352764013336    9.10380337331205
C         0.51613653067415    3.97035149869539   13.64257694939050
C        -0.41765361871044    3.06236342234105   14.43362289622583
C         0.27487430468689    1.75238714465339   14.80425543139577
H         0.64301408499921    1.26620037030648   13.89771285640670
H         1.13668081826834    1.95235068149526   15.44529708916540
C        -1.61521200895094    2.76468413526875   13.51951134998310
H        -2.09706500043267    3.70428029512527   13.24335638725604
H        -1.26139352606829    2.28704005549368   12.60340337805560
C        -0.91323031461605    3.76084223170485   15.70085019762047
H        -1.38700276518493    4.70469860169387   15.42812115355192
H        -0.06336006538293    3.98645274379935   16.34973220996322
C        -0.71074301801905    0.83906588197285   15.54082359032378
C        -1.90406767394737    0.54545465188504   14.62331370027618
H        -2.59710007820534   -0.12287081863410   15.13962391170105
H        -1.55563634284289    0.03711549844573   13.71965561872214
C        -2.59899213272071    1.85459761186432   14.25225691978538
H        -3.45044901881766    1.63976118077791   13.59649363402892
C        -3.09200269183462    2.55201402210678   15.51925419677849
H        -3.80855488375973    1.91381020860706   16.04147454073332
H        -3.59852415808604    3.48254132476933   15.25527884983042
C        -1.90031974289662    2.84917986174115   16.42849915113544
H        -2.25059665791359    3.34681985683953   17.33969766358670
C        -1.20740320878734    1.54124372955984   16.80530461157518
H        -0.35644870808475    1.72884137189017   17.46204179437995
H        -1.89431382813181    0.87652960728990   17.33191432290854
C         1.04076130108822    6.77310536504331   10.60043087884179
C         0.42546576160021    7.67130649621272    9.53410227573321
C        -1.02662094899155    7.92830144428610    9.96222348196808
H        -1.54885421702286    6.97363621584356   10.04627694253196
H        -1.03575521389093    8.40351642433166   10.94548433008462
C         0.43272732461557    6.97624037320725    8.17137628557628
H        -0.08141670669036    6.01795166564238    8.25552730112545
H         1.46386474366398    6.77949192672871    7.86727598820918
C         1.16893996746207    9.00183208448101    9.43781888389523
H         1.17699942878163    9.48642856042499   10.41705811818827
H         2.20766637661158    8.83062518473896    9.14574360285961
C         0.48566618873522    9.89955483417401    8.40067624081132
C         0.49080157936449    9.20085807161598    7.04035539307254
H         0.01849829392016    9.85500475545198    6.30549340152906
H         1.52451911035716    9.04208227342321    6.72915262408143
C        -0.25513550046857    7.87197393003829    7.14216296092174
H        -0.24439009840927    7.37685294260622    6.16472549216861
C        -1.70000472970741    8.12876692838450    7.56822542374749
H        -2.24164970498762    7.18291759127894    7.63228106838580
H        -2.20093076137393    8.75533480768140    6.82664759262367
C        -1.70944558946815    8.82276698353292    8.92947381574451
H        -2.74404384563104    9.00885504774473    9.23948732807462
C        -0.96365850050582   10.15285224344644    8.83359957139401
H        -1.44526917500445   10.81018160759531    8.10593101989251
H        -0.97378560085408   10.65872060918582    9.80335613608792
C         2.96947524661319    6.37990383720114   14.99770226292752
H         1.92660838378627    6.50922284414166   15.24919625833864
C         3.98984154938620    6.71339771689228   15.89669933622292
H         3.74051144668972    7.11178231150706   16.86754856346525
C         5.29821665597475    6.52667802611758   15.52140493632492
H         6.11290888065767    6.77269641411308   16.18756753624790
C         5.57874411614231    6.00669220012259   14.24595944391996
C         6.90100759214379    5.78016186475993   13.76528309335271
H         7.72818768332329    6.02042870772993   14.41709731638719
C         7.11775706009686    5.27867100554963   12.52525004633006
H         8.12186328747740    5.10948315506733   12.16475079540118
C         6.03064277802330    4.95993627014769   11.66077102919739
C         6.19931106983049    4.43869090178707   10.36629704068688
H         7.19646768575713    4.26377883032203    9.98798863472969
C         5.08970538447246    4.16104591872472    9.60518623738787
H         5.18442803601610    3.75974927960999    8.60847851928320
C         3.81884109425423    4.40520357977439   10.13987860363782
H         2.91838288162853    4.20414382409868    9.57757791602091
C         4.70657756468878    5.16986085846640   12.10470271885523
C         4.47725369700582    5.70226234917600   13.41634800510799

