72
CSD_code = DOTRIP | q = 0 | S = 0 | Stoichiometry = C36H31NO2PtSi | MND = 4
Pt       -2.62750155194897    4.10480646428161    8.10339707093953
Si        1.75569542028622    0.93044778676217   13.04468246592218
C        -4.89464417796951    3.95255929850350    6.25050592388001
H        -4.68199318479952    5.00439419162058    6.11266985282821
O        -1.01970269382334    4.79259276431850    9.10098969232248
N        -4.13036247919015    3.30929822901914    7.12852010486771
C         1.03535935879105   -1.83173832652167   13.17521227838836
H         0.02216324536644   -1.45491522115775   13.15261565210251
C         0.18633150995408    0.47787110403218   10.69218209648034
H         0.83662509986940   -0.37374131749687   10.54546428001950
O        -2.79281918408272    6.02588712648085    7.18555269331573
C         3.28775983924533    1.87890134883890   12.45279913735155
C        -1.60363228860975    1.88436874677836    9.90342489041364
C        -3.45760125522371    1.41541518030565    8.33256490842985
H        -3.56681155199471    0.37843231335203    8.62197820200273
C        -4.33787150470169    1.98192616106773    7.35215245808519
C        -2.04242967966763    7.00943328285473    7.41346202300596
C        -0.77561435255466    0.77162039247387    9.74706484579306
H        -0.87212964379369    0.16330608758231    8.85916625686493
C        -2.56095403805057    2.27365632415757    8.88130668052599
C         0.34348167539929    1.26218417528353   11.83279161359168
C        -0.94801873108643    7.03088422688621    8.28369782105301
H        -0.39667881571704    7.95499534332709    8.36650185163440
C        -0.51202181586064    5.95095049783738    9.04979382263982
C        -5.34427204167391    1.29794971154704    6.66568901599469
H        -5.48843736673804    0.24624528009374    6.85725998533974
C         1.32683888465393    1.56541382329799   14.77951817412715
C         0.89304939741853    0.70853794416269   15.78564082883480
H         0.80945727386742   -0.34909433744707   15.57908378461883
C        -2.35150318981177    8.29543709147790    6.67379532708163
H        -3.20829972439243    8.15116984207581    6.02038559856136
H        -1.49243422797342    8.59953430356259    6.07973971402437
H        -2.57168518042788    9.08847322061813    7.38539437887646
C        -6.13333310264175    1.97215690819182    5.75713751992001
H        -6.91465495645836    1.45742149199539    5.21857487730904
C        -5.90621820582588    3.32843908310159    5.54532214998141
H        -6.50340401572322    3.88945340594774    4.84507428423821
C         3.34178439450343    2.43970750338649   11.18073513825959
H         2.49411571660420    2.33014618182177   10.51916191105482
C         1.43718157652506    2.92149156214907   15.07537995086440
H         1.78518977079021    3.60188889770339   14.31028711720413
C         1.25758111443120   -3.19423774621121   13.25459331193682
H         0.42085383292615   -3.87705406695337   13.30008590235808
C         0.68732253014999    2.53978363723668   17.31943276258041
H         0.44092532395281    2.91611444997030   18.30199187630374
C         2.55303444033702   -3.68391600112944   13.27552978921257
H         2.73016631330037   -4.74800093759643   13.33870321167277
C         3.38971246919159   -1.44139594012325   13.13266188951238
H         4.22694830020372   -0.76032780804516   13.07738917681592
C         5.54703744401097    3.28370750449564   11.59800993910218
H         6.42131217653245    3.82572264284622   11.26688890474035
C         3.61959246584505   -2.80343688912130   13.21191433569691
H         4.63249438091444   -3.18046456512424   13.22416486694429
C         1.11966625212241    3.40752414722923   16.33042457036459
H         1.21091096275074    4.46401212824520   16.54037129179932
C         4.45828632421463    3.13710429888714   10.75521801836775
H         4.48015238000124    3.56787793781744    9.76415088397138
C         5.50883230301083    2.73580266002926   12.86957062746224
H         6.35413550196565    2.85097350115829   13.53338850933538
C         4.38765013787827    2.04415394331952   13.29028593360090
H         4.35814996750962    1.62895767181486   14.28845137326061
C         0.57668551002683    1.18726982704851   17.04448429874898
H         0.24458832238914    0.50506473880505   17.81434005558789
C        -1.46470750132985    2.66111536517489   11.05654812274585
H        -2.11789947873153    3.51269626553431   11.19090566645485
C        -0.51445570289212    2.34690155978595   12.00377840777980
H        -0.42098940080411    2.95646143057589   12.89169270547045
C         0.69931755648324    6.16920654518409    9.93249484555885
H         0.95439825434591    5.23870377425271   10.43359634002710
H         0.48191111652985    6.93177478273150   10.67753064371417
H         1.54473684238563    6.50580219023187    9.33700476553307
C         2.09604565780808   -0.93160514233618   13.11592059459226

