79
CSD_code = DOTRAH | q = 0 | S = 0 | Stoichiometry = C36H38BNO2Pt | MND = 4
Pt        3.06269982771781    4.85036269989749    0.78902965620924
O         3.57454075137538    5.37477500567809    2.66416837540756
N         2.54755896455844    4.22209062005296   -0.99510180703221
O         2.01428272234605    6.70315308809128    0.63198698221730
C         6.77650296741843    0.04660106970528    6.12516567191526
C         5.79505685153827    3.45304538018021    2.46986183096052
H         5.91634331375279    4.45108391074227    2.07128158856712
C         2.96733269545485    2.96848344836940   -1.32029576518840
C         4.69988204849204    1.31813161932501    2.40032879003552
H         3.95731473909901    0.66107344369715    1.97048674653661
C         8.89896711394662    2.57524117307316    6.79439175453937
C         5.51601532378359    0.08463802527357    6.73758451924224
C         8.66181694855073    1.97209228103970    5.54587438733236
C         4.83763389914440    2.61321622591651    1.89245449865624
C         1.78964727456743    4.90102156962792   -1.85149298808197
H         1.48377826545227    5.89045224664155   -1.53873461424772
C         6.43624228794659    1.72436138235948    4.04800831242968
C         5.47273353318629    0.89414482811236    3.45926055914380
H         5.34179880876944   -0.10684540240216    3.84729684188490
C         3.28685604197530    6.44602668011178    3.27413429468734
C        11.06153570253891    3.37505257758109    6.05795560399122
C         7.54449600117119   -1.12086476579416    6.28042639088030
C        10.07542818322139    3.26460318801108    7.03015329993770
H        10.23518946737267    3.72804358604701    7.99462313553491
C         3.78373699906731    2.35382689913391   -0.31598189962528
H         4.21554932018987    1.37803341102983   -0.49632239996056
C         1.96081898565905    7.58995117210577    1.52218357849698
C         7.05396930319730   -2.19512391945505    7.00331571866598
H         7.65873924751463   -3.08661241827142    7.10316360977185
C        10.83636342358880    2.77182610430407    4.83377259845274
H        11.59079782728170    2.83460268271347    4.06078115245100
C         9.65929854659664    2.08301158831593    4.56823306331569
C         6.57981283062391    3.01201736294769    3.51137011886233
H         7.31789530343435    3.67473597792119    3.94242087849169
C         2.54258775372952    7.52120822801185    2.79176877797311
H         2.40135829900227    8.36448212783250    3.45026945392826
C         7.86505721152786    2.50738434884276    7.88045835703874
H         8.23219052469195    2.97544548043515    8.79130007439286
H         7.60646712289415    1.47311946840664    8.09722210869740
H         6.95452309257606    3.01910518778352    7.57275817025167
B         7.30212316467473    1.24204926312342    5.25234043622700
C         2.60959069335600    2.39695481355295   -2.54434101949738
H         2.95366752500061    1.40194445428264   -2.77911150111843
C         1.40541511910286    4.38712737387625   -3.07559346839783
H         0.79159172212500    4.97328428086997   -3.73998712395827
C         1.19150841782216    8.85269508642011    1.19101410909415
H         0.79782879029424    8.79370836708020    0.17938239152944
H         1.84472266307845    9.71875086270728    1.27346732471291
H         0.36786319644051    8.97936066036451    1.89044637505832
C         5.05241863028316   -1.00195205210645    7.46743188280465
H         4.07917610979335   -0.94082928655456    7.93613057477670
C         4.63421241312826    1.30077245905026    6.67522930708410
H         3.68585886357506    1.05148623372073    6.19984156052065
H         5.09711865431143    2.10599645697991    6.11405469117915
H         4.41659397767974    1.65463925449022    7.68317254481794
C         8.89643927025447   -1.23392191862260    5.63820334121217
H         9.37781820550910   -2.16871940041740    5.91703455508428
H         9.53428308671864   -0.40653392001710    5.94134396209409
H         8.80686835191907   -1.20333953872069    4.55339823998289
C         5.80512622835344   -2.15520705782149    7.60781781894869
C         9.52735212577433    1.43722978544184    3.21699398321387
H        10.36902081666583    0.76738629417132    3.04068765791690
H         9.53973141552964    2.19739656817259    2.43616192533202
H         8.60550234580985    0.87137690695038    3.12953446808012
C         4.00778024991764    3.09436029088928    0.80132662054871
C         3.82570140529791    6.55460883421563    4.68537160504709
H         4.38528269912085    5.65475608211361    4.92731965938325
H         3.00645055028436    6.67282190980977    5.39096262520905
H         4.47766426157582    7.42108420448137    4.77079348107010
C        12.32879651717687    4.12247493093716    6.34485663806270
H        12.97647464972966    4.14098189431008    5.47170955229306
H        12.86799917057747    3.65304972691497    7.16741350521569
H        12.10730462935371    5.14867468385739    6.63638561924101
C         5.28275966156947   -3.33466404088762    8.37128475642761
H         6.09754764546928   -3.88982262411107    8.83188932108833
H         4.75381636373777   -4.01021826122540    7.69702915693681
H         4.58685057473556   -3.01910561417375    9.14581741419292
C         1.82440237883594    3.10771669356987   -3.42766531277285
H         1.53821793013204    2.68002775913307   -4.37671010525707

