52
CSD_code = DOTROV | q = 0 | S = 0 | Stoichiometry = C24H21NO4PtS | MND = 4
Pt        2.81317561290476    0.71215899109165    0.84670776364542
C         0.23103256659146    1.71403938024730    0.29936313624036
H        -0.73236998222610    1.93144155954200   -0.14324794590010
O         4.51055398300906    0.61234574548791    2.11476561317730
N         1.78002293795031    1.86350440966465    2.05197728468171
C         1.15841729914187    0.89097698684751   -0.25139933427032
C         0.56593603017212    2.26148027345485    1.58398788909982
O         3.80286034745352   -0.41646222878060   -0.48808377518240
C         1.00494958528754   -1.77968784999692   -2.86230790007569
H         1.18954324836973   -2.83613954102167   -2.98102547680978
C         0.61168262546162   -1.04512919192581   -3.96634908237938
C         0.38025191103555    0.31435436115525   -3.87691967664468
H         0.09190693492412    0.85417593413966   -4.76548543443636
C         0.95081611486804    0.23363688362646   -1.53409897612270
C         0.54584714015856    0.95260927497765   -2.66241939819142
H         0.38528981890233    2.01699941203799   -2.58010119598433
C         1.18274357731440   -1.14085007783175   -1.65226181139948
H         1.49739142947191   -1.69153989685775   -0.77752900900520
S         0.31608126319957   -1.89058697002184   -5.51759585437672
C        -0.24151081893615    3.11271322953179    2.34124214054389
H        -1.20012390276864    3.41320424835851    1.94861869293976
C         0.19596467137460    3.55342476056179    3.57359610607210
H        -0.41621833738766    4.21017742249274    4.17284915547197
C         5.85116211010646   -0.72890089691061    0.69214277209661
H         6.81876936644228   -1.20055243926531    0.61656641105725
C         5.57573090822430   -0.00853853846525    1.85757337963175
C         4.97535259101060   -0.88372229879679   -0.38185044255810
C         1.44063415168493    3.13601214715819    4.03333786789142
H         1.81643510932620    3.45831417795147    4.99075744743035
C         5.45961435154496   -1.70120336477476   -1.55902483093622
H         4.66471970138942   -1.78423985874621   -2.29568707074269
H         5.75837706208158   -2.69376156017257   -1.22979619282725
H         6.32213827051738   -1.21979793923521   -2.01487959005537
C         6.66360267866259    0.03241406037732    2.91024132571666
H         6.31210157494175    0.56894959997637    3.78793936793446
H         7.54284919075706    0.53481724074607    2.51213532492493
H         6.94834056456038   -0.97828359621911    3.19350136449427
C         2.19682681670909    2.29427257457091    3.23943182046938
H         3.17106088246571    1.94765547860875    3.55766471486339
C        -1.42614434455809   -2.31876446552456   -5.37461102858881
O         1.08581173988682   -3.10784048496115   -5.54535030812015
O         0.46914642901751   -0.95800786317832   -6.60429593003357
C        -1.78239055395075   -3.53146382741494   -4.81840434917668
H        -1.00522024183044   -4.22433402938941   -4.53665323017877
C        -2.37902881675562   -1.40221019121472   -5.77399640797598
H        -2.05627347165688   -0.47506527495196   -6.22065599489528
C        -3.12458066119378   -3.83492773782041   -4.66042970708444
H        -3.41807351475054   -4.78185860223030   -4.23289407766206
C        -3.72038595797949   -1.70787284453433   -5.61459164096251
H        -4.47645306424348   -1.00369201957716   -5.92804200884761
C        -4.08962518703053   -2.92132976359515   -5.05515939423338
H        -5.13604174164486   -3.15851479918873   -4.93125250272930

