115
CSD_code = DOTSAI | q = 0 | S = 0 | Stoichiometry = C60H48N2P4Pt | MND = 4
Pt       -1.92075372557878    4.33143216183184    5.53908892696710
P        -0.79980083183014    4.40288769701453    7.54476481744060
P         0.32451389939617    4.29038476334686    5.05151809357858
C         0.79411232645749    4.39082184330952    6.76132805137337
C         2.08908064769494    4.42295332990327    7.34282656412698
C         3.24942836593790    4.43298609952011    6.55499886527195
H         3.15998810782651    4.41469505946149    5.47597417532913
C         4.47817254435068    4.46699473504009    7.17520165612127
H         5.39214999233264    4.47319539657117    6.59329936262245
C         3.54920851519157    4.48931944151411    9.24094005791838
H         3.71989625165966    4.51366258963985   10.31066416576936
C         2.27014502991712    4.45201899900143    8.73330960439974
H         1.40349812185983    4.44527278501894    9.38215898405109
C        -1.03298643786575    5.80389577450806    8.67260471878405
C        -0.23521668702027    6.93520381878769    8.53790381303085
H         0.58556837495172    6.92300547724118    7.83242079331860
C        -0.49125721477179    8.05478268642372    9.30742355571402
H         0.13643273520425    8.92873831944930    9.21081344515026
C        -1.55317192627946    8.05802427872084   10.19770815592694
H        -1.75427215226811    8.93521087426474   10.79492870748062
C        -2.36186996766152    6.93884026171530   10.32088507501928
H        -3.19532650838922    6.94537142191496   11.00832731366944
C        -2.10693682014171    5.81596109137411    9.55861609893602
H        -2.73564900953199    4.93998595808228    9.64539686246190
C        -1.11621607404436    2.91047500050303    8.53875108536250
C        -1.57988494568004    1.81872747595740    7.81009828732743
H        -1.73529773411827    1.93880294848761    6.73653446865470
C        -1.85216361913543    0.61959047602326    8.43573978154776
H        -2.22570968372753   -0.21904668144602    7.86651957429537
C        -1.65436152992480    0.50381672519665    9.80313322428194
H        -1.86811429965505   -0.43019352482941   10.30151855834365
C        -1.18540167217512    1.58409401794109   10.53332410225746
H        -1.03124047077204    1.48851017219814   11.59848371952121
C        -0.91515905280502    2.78857262484127    9.90817953570608
H        -0.56235212081143    3.63304474083999   10.48459291181955
C         0.82215786111489    5.75813209428328    4.09723495751527
C         1.94129667907158    5.85742475554685    3.28038395903357
H         2.59944244566870    5.00851416145007    3.15257600289393
C         2.19998614229316    7.04528893945119    2.61933231248865
H         3.06904468942212    7.12390763856186    1.98212259404853
C         1.35198398583281    8.13077798191806    2.76828420049255
H         1.56006722745871    9.05190017820631    2.24427813698874
C         0.23626747075054    8.03719347528018    3.58609809087733
H        -0.42996811548136    8.88022145847086    3.69660750077203
C        -0.02269205187601    6.85439198778634    4.24701053018194
H        -0.89831893113082    6.75076638083652    4.88964581745556
C         1.04426641913499    2.86858624243975    4.18505707676451
C         0.93150830204080    2.77272198181742    2.80041203656775
H         0.51001610995112    3.59874884428994    2.24339693139746
C         1.35618057964497    1.63138025396267    2.14947810077425
H         1.26763002835215    1.55898149369414    1.07511593493352
C         1.88811663823844    0.57721413469751    2.87617238738176
H         2.21996711028398   -0.31477391036658    2.36542792465849
C         1.98942576478885    0.66338700453404    4.25549040666287
H         2.40052952953523   -0.16052579334316    4.82041905551861
C         1.55928000168058    1.80130731920803    4.91268079891001
H         1.62223727062604    1.87601658971627    5.99049865890925
N         4.64429235352715    4.49563564091606    8.49143894063355
P        -3.04128600311965    4.40279906832872    3.53225971173739
P        -4.16573199941165    4.29036320981925    6.02541324243841
C        -4.63525532237423    4.39080168038877    4.31559203376380
C        -5.93020868583076    4.42298134078064    3.73407256577329
C        -7.09057545612814    4.43339741087164    4.52186221884195
H        -7.00118810331800    4.41483809714884    5.60090012641188
C        -8.31929132398464    4.46769100798465    3.90161140937223
H        -9.23331465647279    4.47312204588632    4.48348418406830
C        -7.39027622213854    4.48867524930579    1.83591645535607
H        -7.56090652016567    4.51388926502078    0.76617314068148
C        -6.11122945530966    4.45164150449817    2.34359113524537
H        -5.24454634892604    4.44517097884036    1.69477873278907
C        -2.80811733014661    5.80380939998114    2.40439881304633
C        -3.60592490619071    6.93510207350451    2.53901267350886
H        -4.42670275050166    6.92294177548802    3.24449994021200
C        -3.34987777379605    8.05465981668317    1.76945983868041
H        -3.97753885902686    8.92863570856820    1.86606604102315
C        -2.28792615306660    8.05789733599754    0.87922295985987
H        -2.08678717064565    8.93508793880915    0.28201738628008
C        -1.47919030950260    6.93873244152633    0.75613416606857
H        -0.64573321269093    6.94523949750961    0.06869320352253
C        -1.73413532619687    5.81587534585022    1.51843052029517
H        -1.10545399064957    4.93988145794877    1.43164732004327
C        -2.72496956582028    2.91040555495629    2.53819015439389
C        -2.26121318427692    1.81864894753132    3.26676511811811
H        -2.10569552268058    1.93870514221106    4.34031859260911
C        -1.98890116374067    0.61955926141980    2.64105712830272
H        -1.61527326013698   -0.21907884646433    3.21022340431689
C        -2.18682060427089    0.50381986155307    1.27368023009389
H        -1.97306983453053   -0.43016286323932    0.77524753815225
C        -2.65587951071167    1.58410454087269    0.54356432198724
H        -2.81011516169877    1.48855627043038   -0.52158753854050
C        -2.92610525358112    2.78855351543548    1.16877029720228
H        -3.27895373021396    3.63304362344552    0.59240640451169
C        -4.66332207821266    5.75812989543222    6.97969027169402
C        -5.78251633887406    5.85747732322945    7.79647058030700
H        -6.44059336175366    5.00851868394236    7.92440668998256
C        -6.04121669304031    7.04536285838140    8.45748521281333
H        -6.91023931796109    7.12397453163939    9.09474839119037
C        -5.19315358014343    8.13080729500279    8.30860074381069
H        -5.40127982037467    9.05196827236119    8.83253243128493
C        -4.07735773945337    8.03715389912770    7.49089938980379
H        -3.41121557937049    8.88025164437237    7.38024007341724
C        -3.81839111989462    6.85433649100893    6.83000921382511
H        -2.94282646634702    6.75074580390321    6.18728975888434
C        -4.88546621561248    2.86856997966657    6.89187624355581
C        -4.77265087862397    2.77262830923083    8.27651666075483
H        -4.35115672088555    3.59863032795640    8.83357296668761
C        -5.19723708008801    1.63121650012362    8.92739244511929
H        -5.10864488196802    1.55875003887165   10.00174557697054
C        -5.72916785871208    0.57707898539894    8.20065234237121
H        -6.06096602481979   -0.31495458142249    8.71135265602610
C        -5.83055700364095    0.66334470544422    6.82134379821266
H        -6.24167769634354   -0.16053412548801    6.25637719767876
C        -5.40047564056943    1.80131984076238    6.16420881134579
H        -5.46348991614239    1.87610464987693    5.08639932187046
N        -8.48537325544440    4.49569231959207    2.58537628274324

