55
CSD_code = DOTTEN | q = 0 | S = 0 | Stoichiometry = C23H26ClIrN4 | MND = 6
Ir        1.38696391419127    4.29204958334399    7.53491002863589
Cl       -0.93347394591477    4.29313138081094    7.95267009500606
N         0.40821384003162    5.36426017597095    4.89384285122975
N         1.83984793926712    7.14166209191928    5.27830814669791
C         0.80650155183762    4.29205065680152    5.61561440292190
C        -0.21944533453414    4.96728616470482    3.73953184501000
C         0.59546677724560    6.70087193978853    5.32258126824181
C        -0.49379969464413    7.45785679846943    5.76896357670529
C        -0.20290981778759    8.74735324693141    6.19884308415629
C         1.10049027776068    9.21604315144531    6.16480323868396
C         2.09060238084036    8.36992200854911    5.69393051512709
C        -1.86970126863979    6.88870779213000    5.83588757825079
C         1.81517881552023    4.98468956890589    9.51794495797116
C         3.08497645026929    5.79841584766007    9.62273710444388
C         3.93015417151838    5.81889622345355    8.32713645297855
C         3.35415997627915    4.99573095837291    7.19534153096139
H        -0.58586728353545    5.66725653338243    3.01704374323085
H        -0.99973545492740    9.37644890445454    6.56955548811285
H         1.34022411889628   10.21286287561469    6.50034521978270
H         3.12589902808174    8.67792933209951    5.64122698456758
H        -2.19767930724015    6.52348134394641    4.86432729004271
H        -2.57675983346939    7.63386253517093    6.19025138600294
H        -1.87243194070231    6.04210213388425    6.52713254933359
H         0.92344408856426    5.49688421868336    9.87516513491456
H         2.81857606580759    6.82222733878243    9.88859052175105
H         3.68480155331407    5.39657348199454   10.44566434759683
H         4.93947751194587    5.45386002405604    8.54302389894414
H         4.02589020698961    6.84966189185256    7.98444344778247
H         3.41944112317688    5.48776878483238    6.22821245741736
N         0.40784954553408    3.21976281837637    4.89420494128014
N         1.83928922564223    1.44264229975011    5.28051379938456
C        -0.21963309804904    3.61654045040560    3.73972248933842
C         0.59482994057315    1.88333668068731    5.32356846269765
C        -0.49473482774947    1.12646408345471    5.76941045565706
C        -0.20416495386266   -0.16296778350593    6.19966911543483
C         1.09925762857497   -0.63167366572827    6.16659761171891
C         2.08974196682544    0.21446179333226    5.69653362158663
C        -1.87062501867651    1.69576265566073    5.83558836249616
H        -0.58622372499349    2.91647771740214    3.01741098792539
H        -1.00125705975315   -0.79199065709270    6.56993097169634
H         1.33872196447333   -1.62847165393480    6.50239412434632
H         3.12509992555684   -0.09347886758214    5.64488824241174
H        -2.19815856458137    2.06082124142287    4.86381725408860
H        -2.57789275107456    0.95071756870324    6.18976832085555
H        -1.87358824346563    2.54249601184141    6.52666534743135
C         1.80901123492081    3.59840018859124    9.51811610212889
C         3.07063180250986    2.77208487490001    9.62163207782850
C         3.93719551763928    2.77964985506013    8.34003325967859
C         3.35638287484270    3.59005901336483    7.20114269440920
H         0.91337847742514    3.09393597211253    9.87664643053160
H         2.79184655676378    1.74394457306689    9.85612054684370
H         3.66000606390979    3.14707115463541   10.46482941527717
H         4.93207847646037    3.17228511559321    8.57303456543162
H         4.06709958828389    1.75271655628767    7.99694779062831
H         3.42195154212476    3.09080501518531    6.23778386238959

