58
CSD_code = DOTWOA | q = 0 | S = 0 | Stoichiometry = C27H23Cl2NO3PRe | MND = 6
Re       11.29194327341133    5.03327171729598   10.92464746218886
O        11.03214664094919    5.16612580863669    9.29250185111260
Cl       10.53717179429396    7.11659536305370   11.60036740726307
Cl       13.44115388248023    5.82356409757265   10.89153701568490
O         7.40430250667187    3.69023515742534   12.32189092139753
C         8.73436362814759    3.85869482099643   12.34234871605295
N         9.23435455483735    4.40343984041601   11.28980553728943
C         8.16679020794924    4.77423543225582   10.38651613177464
H         8.35711292692980    4.34249110493012    9.40160411220323
H         8.15557308611002    5.86327394661061   10.28820273983488
C         6.91577729240827    4.21256947868884   11.08551222093351
H         6.16776640100979    4.97647860772762   11.30778680723594
H         6.44671914955399    3.39444658626929   10.53109063796324
O        11.43717996836948    4.53174608196277   12.76184365141169
C        10.82553118669796    3.83357036439671   13.66855047496985
C         9.46805534752677    3.43958231387165   13.51121478533515
C         8.83988406039740    2.68797032271673   14.50555405413025
H         7.80872873793946    2.40600257597086   14.35851294342947
C         9.52342464772170    2.30917822841300   15.63879617833095
H         9.03161764784161    1.72208070898062   16.39862099897812
C        10.85018840571176    2.69625835286472   15.80456595806457
H        11.38588951717952    2.40564772408527   16.69643506717147
C        11.48992057487301    3.44774141878917   14.84671339933707
H        12.51690432534688    3.75509614364223   14.97310083899181
P        12.14900433032889    2.69026249944158   10.64575362158303
C        10.84629100447933    1.52818497416797   11.12966378839387
C        10.89153329185261    0.79963366142412   12.31289749302470
H        11.77417715645772    0.83477394331593   12.93576172919311
C         9.80097381767466    0.03795879781687   12.69534417541034
H         9.83907838387537   -0.52444038430026   13.61636382581337
C         8.66251385186859    0.00464296589571   11.90793017110913
H         7.81165090878311   -0.58502186131191   12.21455142364019
C         8.61215625997274    0.73116910320093   10.72730610503815
H         7.72420367210212    0.70117439701683   10.11264619793848
C         9.69601273733918    1.49524542174982   10.34163670138037
H         9.67252750406985    2.08009874892931    9.43094398225222
C        13.60744422001202    2.14654699121900   11.58480017208176
C        14.08835644006989    0.85532729752845   11.37430858485047
H        13.60425041025791    0.21188823391525   10.65277248536369
C        15.18305875115399    0.40430485436977   12.08605233506097
H        15.55553974103148   -0.59614009770774   11.92175639995699
C        15.80414522685858    1.23521615482584   13.00661287984749
H        16.66077115327436    0.87933005948881   13.55970070965047
C        15.33220949421990    2.52060687342659   13.20961397208093
H        15.82299939541844    3.17152295629765   13.91763625278074
C        14.23551722869225    2.98122392464198   12.50035224495278
H        13.88262209902939    3.99264163239915   12.63635862554908
C        12.57552377110773    2.26876773298022    8.93335348693246
C        13.27122401180700    3.23461552301190    8.21014853862381
H        13.48701699078297    4.18882396254027    8.67329712645346
C        13.65978921067654    2.97126062956247    6.90985062886027
H        14.19539156214765    3.72045731171421    6.34730977658828
C        13.35485247103283    1.75062999632532    6.32782659354606
H        13.65489313214537    1.54653087031415    5.31062479488467
C        12.65891561637954    0.79185132540875    7.04574037712496
H        12.41739409753660   -0.15718409547263    6.58945346704519
C        12.26781427840176    1.04498493554611    8.34875793643296
H        11.71664801480211    0.29811446274481    8.90405348546919

