43
CSD_code = DOTWUG | q = 0 | S = 0 | Stoichiometry = C18H16ClN2O5Re | MND = 6
Re        1.65855828200368    7.04594878552744   14.32110451888103
O         2.26288184136778    8.58300691834741   14.23604174731175
Cl       -0.57433695136383    7.76471326904839   14.27920917840841
O         1.06719516505197    6.35151932278217   18.51917250428884
C         1.03562321902700    6.09308491230566   17.20430637165392
N         1.48626237213862    7.03569496521762   16.44849875728679
C         1.90922949180540    8.15183277550393   17.27361800370007
H         1.34007376566211    9.03978757207922   16.98711877816068
H         2.96884471524042    8.34643536568455   17.09331785239558
C         1.60534188621359    7.66117222324895   18.70053031369226
H         2.49772912609807    7.58069321440872   19.32651297054109
H         0.85655312974760    8.27084252244030   19.21254925673736
O         1.00086925139478    5.32974647913950   14.51334613318922
C         0.52655657358574    4.49234357181633   15.38374550719598
C         0.51585990259008    4.81903132302963   16.76700923806051
C         0.00466309081354    3.90586445292130   17.69202295603166
H         0.00617137688346    4.17805363931266   18.73607274313785
C        -0.49311215182810    2.69020817929239   17.27848714118960
H        -0.88946575121704    1.99321796431710   18.00012072745907
C        -0.48535198205129    2.36409220638491   15.92560491665633
H        -0.87743675330950    1.41137329684004   15.60149232933113
C         0.01599383049121    3.24329146076220   14.99308047758678
H         0.02311360361302    2.99663522720523   13.94174953904169
O         2.49360235569355    6.01250348346023   10.32120412677061
C         2.71472498170170    6.12375284502391   11.63693541084573
N         1.75592315839525    6.71413137996067   12.29087975034781
C         0.70527531717854    7.10548360517626   11.36351931125875
H         0.57945354741981    8.19021974044323   11.40895122912377
H        -0.23813921798904    6.64160228628692   11.66156838793892
C         1.23439673762694    6.60692535167556   10.01186913065799
H         0.59953215888480    5.84338120213873    9.55404183196342
H         1.40405883593519    7.41260881654774    9.29316965574668
O         3.57001268540867    6.08348462877097   14.49769868617441
C         4.28398471954532    5.61931920007904   13.53851581120005
C         3.94236360808196    5.59736774413642   12.15159174174561
C         4.84194544540386    5.03378411229837   11.22232746796393
H         4.55689846006842    5.03492494633195   10.18167841524444
C         6.04187578855985    4.50365033243555   11.60969062097986
H         6.71573174292396    4.08132922553725   10.88096717866834
C         6.38767411265876    4.51664164812960   12.96482082410639
H         7.33376398532500    4.10087176450090   13.28022848127850
C         5.53868890757247    5.05145055730063   13.89228529211583
H         5.79601563564479    5.06847748215051   14.94044468393514

