62
CSD_code = DOTXOB | q = 0 | S = 0 | Stoichiometry = C28H23Cl2N3O4PRe | MND = 6
Re        5.08167078500905    2.02610919368017    9.97982670277336
O         5.76904045604915    1.08786538275180   11.16214425606598
Cl        4.87555181815351    0.40181683016422    8.31993759079642
Cl        2.89191619866769    1.75406653052930   10.57205261955725
C         8.13139252337069    0.39286710266692    9.72025224211379
H         9.05137532449139   -0.14108770398728    9.49549032711154
H         7.26682233288629   -0.20647337347145    9.41942974600772
H         8.05601274496238    0.57748142748271   10.79376292266899
N         8.12148681987953    1.63386228125767    9.00390096275874
N         7.07862917769659    2.45629773280073    9.02387102847882
C         7.36211615566910    3.49411174848092    8.22599633620425
C         8.65276059847276    3.31717412823003    7.69864912085260
H         9.16830425329599    3.95853542941653    7.01580351133447
C         9.09070415804736    2.12113110005724    8.21753100449902
H        10.01534569736862    1.60064126714761    8.07083185049604
O         4.58817192706380    3.31730794661310    8.70577361848543
C         5.02623516212616    4.36463076110132    8.09100387347946
C         6.42814168608433    4.56583088780991    7.91313258140005
C         6.87180889448220    5.76097162966760    7.37515758333697
H         7.92686823444964    5.96191758811871    7.26761376719106
C         5.96442542621402    6.73670864330018    6.98141343523298
C         4.58947219207177    6.50730792591816    7.05794023185483
H         3.91018434296947    7.26618980045149    6.70209325191783
C         4.13041431036171    5.33264503696583    7.59253038753292
H         3.07423027073130    5.13015540733634    7.67472598653191
N         6.44946674485268    7.98509544490302    6.48666454719041
O         7.65482215860511    8.13903612676214    6.41677043507086
O         5.63225440280377    8.82967919569201    6.17495805568606
P         5.07780082575670    3.92094485933637   11.65592245951456
C         4.31366926044750    5.43215091244759   11.01427258682540
C         5.00072350647916    6.62209340941114   10.80329327024238
H         6.04422955847099    6.70495956422340   11.07059879932976
C         4.33743997091243    7.70918098620551   10.26043900087078
H         4.87173954959816    8.63259362271294   10.09385954875654
C         2.99514070965240    7.61659214783532    9.93274500315379
H         2.48560712112490    8.46875431657897    9.50924362384064
C         2.30733929535177    6.43150812399478   10.14779695286730
H         1.26003164949545    6.35951950186814    9.89458713423612
C         2.96229412992228    5.33746570381165   10.67960031115902
H         2.44354826085135    4.39941263423513   10.83412695458320
C         6.71867653962043    4.38278326926365   12.28271053192528
C         7.68844115729417    4.80558198316903   11.37475945435117
H         7.43806758041003    4.88682706289730   10.32672789373429
C         8.96151173270277    5.12180532277079   11.80917613044971
H         9.70431758251317    5.45524048461606   11.09953979629581
C         9.28283184128729    5.00775385716933   13.15282420843043
H        10.27809046799444    5.25174511796377   13.49233570585702
C         8.32702438173432    4.57623111988914   14.05735473726598
H         8.57703371766504    4.48244524670130   15.10359519759836
C         7.04937131816781    4.26136743412063   13.62838593673893
H         6.30775124241609    3.92246265350256   14.33659138726971
C         4.12042919784525    3.52701534221423   13.14512532994289
C         3.44355267874134    4.51804080084318   13.84955908158509
H         3.46387397636632    5.54153738854058   13.50151777964318
C         2.74084481723925    4.18524431994125   14.99373574612703
H         2.21040037291918    4.95262251641636   15.53791898111652
C         2.71286936318055    2.87307934376273   15.43748386699252
H         2.15559033771027    2.61836031953057   16.32658882334330
C         3.39276280978188    1.88701025723697   14.73977811366192
H         3.36639683822985    0.86433703480145   15.08370762690879
C         4.09709490543990    2.20972299327708   13.59472529031824
H         4.62027850655895    1.44753487649377   13.02981475796512

