39
CSD_code = DOVDEZ | q = 0 | S = 0 | Stoichiometry = C18H14CdCl2N4 | MND = 5
Cd        5.53720028359341   -0.97298149669754    3.66510899495931
Cl        7.78720117907394   -0.28395961305266    3.94929455069561
Cl        4.88989913090909   -3.11768881067797    2.96750949053412
N         4.25154301539535    0.35264488747588    2.04851234016360
N         4.97791250357582    1.00524551750199    4.75379444135770
N         6.18422153993329    2.02690920956444    6.29216622895173
N         5.04513969499405   -1.36816824080273    6.05396368646868
C         3.29737754286400   -0.35105501906308    1.45081667112732
H         3.43671894145298   -1.42584847100125    1.44632373843369
C         2.18699035331211    0.23377365711782    0.86291605874181
H         1.44235524813545   -0.37660878057812    0.37751115732037
C         2.06136579579446    1.61207977243801    0.91919649494342
H         1.21012608985186    2.10969081396586    0.47777878287593
C         3.05382387424608    2.34420599596119    1.54850327535618
H         2.98799358074738    3.42024211542610    1.60761421781250
C         4.14456571417010    1.68048503130739    2.10087296194346
C         5.26506957404093    2.44746659661164    2.74743273130406
H         6.20180133733437    2.16263509135408    2.25117522563594
H         5.11560453663090    3.52080973969456    2.61453637193461
C         5.44064402690254    2.12824988179717    4.19924097862730
C         6.20707666510579    2.81534936688661    5.14197883601819
C         6.93964928268168    4.01382260575280    5.13610188432705
H         6.94065314888736    4.61498875101330    4.24138489954463
C         7.64256002930754    4.37186131269680    6.24734084172655
H         8.21784787742613    5.28307241798243    6.27056477310942
C         7.64499320369666    3.51968786764880    7.37776679845192
H         8.23358472435338    3.78062331072862    8.24210814790123
C         6.92909133636014    2.36756688897483    7.38088306492826
H         6.94305399810230    1.67503232441471    8.20556314443476
C         5.42613527312960    0.93496468662135    6.00712267812326
C         5.20401176901717   -0.26149072577648    6.79559445422098
C         5.13484746189012   -0.30508936210768    8.18984810477199
H         5.18827017410162    0.59877983020797    8.77637821813942
C         4.94871671125586   -1.52837695881397    8.80963716886613
H         4.89812964593596   -1.58775955660300    9.88706108736369
C         4.81873370409569   -2.66871373301925    8.03234144123365
H         4.68091780286714   -3.63833168192857    8.48273826373776
C         4.85700819364241   -2.53065594094946    6.65143344088549
H         4.73576503521057   -3.38085928206593    5.99108435299868

