23
CSD_code = DOVGAZ | q = -1 | S = 0 | Stoichiometry = C6H6ClMoO9(1-) | MND = 6
Mo        5.08111031598863    1.65717601312489   12.00518543960655
Cl        4.28311763641370   -0.36911394139183   12.54418267696702
O         6.62765540315635    1.52835092071775   12.57540719328099
O         4.13923066868905    2.46938509425254   13.08168010707539
O         5.10206124862170    3.03444105719733   10.73993699757931
O         2.77990928312362    1.70288316335698   10.22716729371176
O         1.48966062520846    2.83400461416667    8.84278463182181
H         1.55746671853050    3.49562217527119    8.14124236203763
O         5.38380152660091    0.68035007468283   10.17108231109341
O         5.56355053860280    0.95962599158979    7.95676976302209
O         7.36597034640712    5.61825965152856    9.80571506364156
O         5.31854261707393    5.80022653437684    8.97140189927065
C         2.70284030676814    2.51559915659681    9.35224015984787
C         3.85062250185392    3.25777809521845    8.70276497400678
H         3.67275391849335    4.33355353137238    8.78957523289777
H         3.90263070566573    2.97566167169791    7.64575784024674
C         5.18954577207352    2.88276879799990    9.38078259791724
C         5.41512795018381    1.35128798258196    9.10155251344521
C         6.38686389409357    3.66960442124200    8.78614676440803
H         7.30958996409470    3.18768013899085    9.11808833062990
H         6.32507066691457    3.62797378278146    7.69739846220556
C         6.43447288682553    5.09637644814920    9.25693576719180
H         5.39250450461621    6.67980462449552    9.37440161809490

