91
CSD_code = DOVKEF | q = 1 | S = 0 | Stoichiometry = C40H38MnN8O4(1+) | MND = 6
Mn        5.67444877740998    0.00026176148266    0.00002181041580
O         4.13765654116654   -0.60415421281418    0.89868979455229
C         3.93905161756167   -1.10819978693309    2.09438043990150
C         4.97102265881404   -1.35569711514040    3.04017949227625
C         4.63101722154944   -1.89169683904739    4.28327243147552
H         5.41097608447468   -2.08057983852229    5.00359044596206
C         3.32484528384395   -2.18377987304689    4.61371933839611
H         3.09133194712559   -2.59763781569831    5.58185292362071
C         2.31075618204950   -1.94345901361703    3.69446923625926
H         1.28612965308418   -2.17156914744064    3.94655986784440
C         2.61336035264127   -1.41678497679262    2.46146824756799
H         1.83227561121268   -1.23071669296276    1.73660283771074
N         6.72173322901992   -0.50603855054182    1.56195451032497
C         6.35137702625709   -1.04969200098971    2.72555624222110
C         7.50127089942520   -1.23786911145754    3.52730092048935
H         7.54582394601764   -1.65300482843547    4.51150254806886
C         8.56438161700429   -0.77933730197112    2.78780539250238
N         8.05152416685575   -0.35251073477714    1.61269718078190
H         8.52421429632428    0.08335739184331    0.83258837858927
C        10.01595078386517   -0.72395727004830    3.08668393234890
H        10.40875867768840    0.27665353530675    2.91180816820870
H        10.56286094634834   -1.42043419560543    2.45131566837072
H        10.19199664743638   -0.99338926977120    4.12356368713117
O         1.38198127762991    1.82980035253741    1.47806166550413
H         0.50445549052058    1.43499931359150    1.56393360665048
C         1.34590233708304    3.09461169162798    2.00643661005588
C         2.52327169538157    3.85680505530917    2.09172695324947
C         2.43190171479943    5.14655060123186    2.62125828663869
H         3.32683969695053    5.74271819458450    2.68947159033065
C         1.23109699592074    5.66759816896985    3.05612341454359
H         1.19104807187837    6.66626593463683    3.46042604007898
C         0.07979264282356    4.90183276444677    2.97491424875713
H        -0.86488894886558    5.29474515410476    3.31572407728418
C         0.14289823604254    3.62408586487588    2.45225273555095
H        -0.75375788916419    3.02175105076009    2.38656763414786
N         3.98999662023663    2.12494343918427    1.13029134850782
H         3.27633991381628    1.41241467143122    1.03421348156529
C         3.81319846360873    3.34638180251511    1.66952258579413
C         5.07870754993897    3.91888038932232    1.71628704276491
H         5.35080164334760    4.88948422239522    2.07343927347631
C         5.95735681226027    2.96181826428869    1.20339860001199
N         5.27618035021224    1.86838853503219    0.85084294854092
C         7.43265944924173    3.08653104387914    1.07467828871605
H         7.78893884279112    2.46853181285656    0.25558289500094
H         7.91547456278607    2.76562581371886    1.99801371773740
H         7.70537238122103    4.12221076351996    0.88968570215307
O         7.21122800491371    0.60470287756754   -0.89861978866624
C         7.40983465668577    1.10871454264817   -2.09432023668527
C         6.37795505649403    1.35549447900987   -3.04040375078266
C         6.71800228138716    1.89118952427828   -4.28360910763293
H         5.93804387674013    2.08006119531384   -5.00393840270539
C         8.02413149924142    2.18361012306460   -4.61391709197070
H         8.25762784366570    2.59766559403911   -5.58198088441046
C         9.03814788653491    1.94381955781183   -3.69445461325338
H        10.06272848941033    2.17234393761645   -3.94637656372539
C         8.73551182509547    1.41739107308395   -2.46136229678951
H         9.51655663149248    1.23165677176892   -1.73636524675432
N         4.62718008464212    0.50636269097050   -1.56194659266079
C         4.99764142204148    1.04916310785927   -2.72591432723014
C         3.84788145762287    1.23626943160111   -3.52810237742185
H         3.80343305748545    1.65049424150722   -4.51269164405652
C         2.78473847789412    0.77801334686747   -2.78847829416139
N         3.29744884230947    0.35235913891330   -1.61288625083580
H         2.82473450184740   -0.08310761421832   -0.83256730220697
C         1.33323641314084    0.72217011808169   -3.08758970918621
H         0.93954376774692   -0.27716833598871   -2.90767143423716
H         0.78667837897180    1.42236481152038   -2.45602146376025
H         1.15771207119523    0.98649096966584   -4.12586670737036
O         9.96677380913248   -1.82891754654292   -1.47865158818352
H        10.84419563756926   -1.43397093542602   -1.56491578644524
C        10.00300633446821   -3.09398683984378   -2.00641117006067
C         8.82573894064159   -3.85638232649333   -2.09130839681534
C         8.91727604942152   -5.14637645620491   -2.62020236320655
H         8.02241689124682   -5.74269948474025   -2.68809172650942
C        10.11814743777458   -5.66748297191373   -3.05481099515444
H        10.15832940044151   -6.66635681247712   -3.45859002981753
C        11.26934777628080   -4.90151898893931   -2.97400474850522
H        12.21408236279759   -5.29447896599403   -3.31461200515678
C        11.20607314595143   -3.62351366261625   -2.45199487961386
H        12.10264615291493   -3.02101860302074   -2.38664202850008
N         7.35890374699823   -2.12444350689291   -1.13021690951237
H         8.07253582951424   -1.41186549274567   -1.03430550551784
C         7.53575419047755   -3.34593712266596   -1.66930540117169
C         6.27026240469812   -3.91847713135390   -1.71605360978303
H         5.99820802726315   -4.88912589425914   -2.07311466410143
C         5.39156662887662   -2.96137227087288   -1.20332396695400
N         6.07270172075434   -1.86788240288497   -0.85087131106332
C         3.91625613988726   -3.08606347113187   -1.07465810593095
H         3.55995315218960   -2.46805715435853   -0.25557921137434
H         3.43349096168811   -2.76513866001358   -1.99801278107872
H         3.64350465481764   -4.12173389941408   -0.88967497112470

