46
CSD_code = DOVKAB | q = 0 | S = 0 | Stoichiometry = C20H18ClMnN4O2 | MND = 5
Mn       -2.19565565273974    2.12806282507634    0.41395325375690
Cl       -3.75242471659704    3.02323589912922   -0.67861453622403
O        -0.51289099224426    2.71596596930042    0.12152868979402
C         0.46929811659460    2.32086382049121   -0.66372013042619
C         0.36619592731996    1.24877489614507   -1.58812685013414
C         1.47055579288189    0.92864615662646   -2.37947797295841
H         1.39135406779814    0.11560829787419   -3.08457357263980
C         2.65385505796829    1.62854948642646   -2.27965862350913
H         3.49385207569234    1.36283550319843   -2.90347644985500
C         2.76128635839897    2.67619136499047   -1.37373653425282
H         3.68635058589708    3.22750794710435   -1.29036136455805
C         1.68876916445588    3.01478842440456   -0.58067156577874
H         1.75494251939741    3.82673210907641    0.12915448561393
N        -1.94002577802756    0.81086492232442   -0.95819600934973
C        -0.87033040348400    0.50725156226153   -1.69876103070956
C        -1.18963644642007   -0.58583258992678   -2.53692285283041
H        -0.55031308661357   -1.06563767014542   -3.24761673141931
C        -2.49480573993866   -0.91021420118643   -2.25910806289373
N        -2.90499248162778   -0.04623616493669   -1.30410119706073
H        -3.81328539523096    0.01700370697442   -0.86751059353449
C        -3.38625579125780   -1.95975596516813   -2.81280416038906
H        -2.85544183881844   -2.54011488212225   -3.56155896043499
H        -4.26444809664597   -1.50977323902211   -3.27460373728788
H        -3.72429521018072   -2.63048463663805   -2.02349157969983
O        -2.62935613674767    0.82064728906397    1.58237143533024
C        -2.89124762769142    0.79948348043444    2.87397616065968
C        -2.93825520851482    1.95642516699288    3.69477402833535
C        -3.24030837366704    1.81302779594739    5.04997430883767
H        -3.27878977748159    2.69271352317895    5.67377313896136
C        -3.49118077465918    0.57596143576983    5.60382046330280
H        -3.72409192975634    0.49077527184845    6.65445474480045
C        -3.44322385011771   -0.55988804370425    4.80546973112619
H        -3.63841162133374   -1.53192213934827    5.23406076984347
C        -3.14779939843631   -0.44921917628606    3.46595478333937
H        -3.10615981391805   -1.32208767181703    2.83045221770334
N        -2.39827220783805    3.41299462659930    1.82522473120281
C        -2.67711538436815    3.25858670985160    3.12271024691817
C        -2.67176082020112    4.52779667216323    3.74589479587292
H        -2.85890011936649    4.74422444506940    4.77650911699793
C        -2.38069234749667    5.43600907260399    2.75783320942153
N        -2.22271213736743    4.72186471877670    1.62125161157493
H        -2.01297100758414    5.06212919972254    0.69397957315850
C        -2.24254972760051    6.91339518568867    2.79034503058255
H        -1.25795511517698    7.21427621457975    2.43407276804612
H        -2.37394407462122    7.27592834419559    3.80551030637215
H        -2.99166058261515    7.38034433644490    2.15154291438346

