58
CSD_code = DOVMUX | q = 0 | S = 0 | Stoichiometry = C30H23IrN2O2 | MND = 6
Ir        8.21916240789353    1.89243692168664    1.65386465383328
O         9.44377894723671    2.88969804687147    0.14644734451480
O         6.62279432733690    2.73320606110360    0.37457834594985
N         8.49876331431654    0.24626385665647    0.56589044795182
N         7.95842783352297    3.52953330465552    2.76325112045049
C         9.14794132671071    3.47891649874989   -0.93594544416334
C        10.23537125418719    3.90236900487437   -1.76442803075680
H        11.22592923636350    3.66232538588058   -1.40485719256091
C        10.05032866651297    4.56379917971901   -2.93858314986246
H        10.90150649463044    4.86144313403300   -3.53558965917464
C         8.75363845605792    4.86140925044122   -3.38203875843002
H         8.60821774979113    5.38451033287741   -4.31526925688981
C         7.68175063910080    4.48332439998129   -2.62560967543965
H         6.69272779473016    4.71699022478311   -2.98749252202250
C         7.81755735042724    3.79015580999778   -1.40089079594745
C         6.64661252469012    3.42094495459355   -0.65983471044863
C         5.28675328349082    3.88138710123012   -1.15855460060844
H         4.53433586191641    3.55674683432234   -0.44244054502270
H         5.06256147505450    3.44008651051382   -2.12752713568097
H         5.25165703680551    4.96453384515442   -1.24656211347069
C         7.75158641050673   -0.09313658949107   -0.48158634332763
H         6.86813911581994    0.50590467035991   -0.65595378708631
C         8.05736227316834   -1.15109257765952   -1.31471434327809
H         7.42024776866987   -1.38265792429055   -2.15319700131657
C         9.19790398626767   -1.89780406889507   -1.04808632251364
H         9.47361069337180   -2.72711178816965   -1.68195699139288
C         9.96981468360864   -1.56087253453899    0.04577752249959
H        10.85831328417167   -2.12539796157993    0.27758204382761
C         9.60515021969301   -0.48210284710886    0.85128298016904
C        10.31690294034689   -0.03269540472516    2.03666397551484
C        11.45369587489704   -0.65414130850793    2.55322529398556
H        11.87273115610708   -1.52364882397315    2.06834798691265
C        12.05282384364856   -0.15798423425365    3.69218837310564
H        12.93367788374684   -0.63708181290245    4.09375977125109
C        11.51997517154108    0.95819974070071    4.32001776620152
H        11.98994299814580    1.34563111917318    5.21310840781529
C        10.39183831359349    1.57861008672636    3.81051322981917
H         9.99754324130253    2.44505572306898    4.32377850539898
C         9.76385985542298    1.10525279858413    2.66349035525994
C         8.57127042633239    4.68739311074463    2.53294680554157
H         9.32552034406281    4.68154897989674    1.75775263609938
C         8.28088754861949    5.84252303029136    3.23265622507852
H         8.80345878256979    6.75826895075994    3.00726149163956
C         7.30738896605368    5.79230149172430    4.22196504902643
H         7.04970949045091    6.67620935718936    4.78602580951162
C         6.67684970745023    4.58981265515928    4.47364619346295
H         5.92058307503150    4.52317959998227    5.23882227151237
C         7.01641430370884    3.45714145436047    3.73400095114105
C         6.44881637415666    2.12899989203065    3.90778635471205
C         5.48008603682064    1.80918540911692    4.85889623806731
H         5.08871130356575    2.56738341602943    5.52155816173788
C         5.01175048815541    0.51546823917329    4.95711348858531
H         4.26125043468318    0.26511721656737    5.69277046657109
C         5.50958289813843   -0.46292920110997    4.10918365165109
H         5.14476583309905   -1.47743751342713    4.18970531385646
C         6.46896586537782   -0.14809259631405    3.16150944429515
H         6.84127555077124   -0.93276535400753    2.51669987256521
C         6.96137687615212    1.14618494118829    3.03214982988046

