47
CSD_code = DOVROV | q = 0 | S = 0 | Stoichiometry = C17H26OP2Ru | MND = 8
Ru        1.60952784383518    9.36716401305831   12.28598939061152
P         1.69725481331685    7.86503381556305   14.03793815716785
P         2.23877829073251    7.95334621916431   10.51624533784656
O        -1.31168411156696    8.88251343389700   11.83666952875368
C         3.26495916902133   10.94472153358669   11.20260794657690
C         1.87069094889758   11.34127617979278   11.28194586010417
C         1.52023076554437   11.52257955689823   12.65514702511019
C         2.57795987620302   10.99047394743499   13.43055757365642
C         3.56117700152254   10.47208319329898   12.54222662213627
C         4.10410789432951   10.98430248760655   10.10254274716786
C         3.77687772215565   11.45514285499743    8.78516566414470
C         4.87668638324782   11.30695401076136    7.99484729945919
C         5.92702499253805   10.73838158745213    8.77541348171559
C         5.46856944872693   10.53811992697120   10.04295558454007
C         1.80557222869073    8.62776980745074    8.87688456082976
C         3.98424518209105    7.48626151636274   10.23885873954634
C         1.41743442913992    6.31166992903387   10.42252274280107
C         0.36323123376018    6.61320377993509   14.15526537083559
C         3.18527731735824    6.79736007168778   14.18159698404717
C         1.63372962682759    8.53428495878903   15.74733601338796
C        -0.18452096529491    9.05388700190319   12.01988397898016
H         2.38627707224706    9.53690812736024    8.70909213690593
H         0.74245172672789    8.86701321220174    8.86093295754871
H         2.03733281225488    7.90241203041387    8.09665251200749
H         4.37234283057156    6.95291409584987   11.10518328002648
H         4.56627595243848    8.39766216686920   10.08569843013458
H         4.05955668275578    6.85714874834728    9.35197334122453
H         1.73632482009386    5.68905200856094   11.25740841802902
H         1.67319170800408    5.81849957155841    9.48471562528319
H         0.33871622350409    6.45679803714301   10.47887255342516
H         0.29768250863963    6.06201961583230   13.21879203523897
H        -0.58097881769300    7.13214296190732   14.31648764001383
H         0.55234206362650    5.92553150237262   14.97977829500302
H         3.24308938783719    6.14919800832147   13.30814376664065
H         3.14216202558627    6.19339481200629   15.08774509922192
H         4.07190282364561    7.43014469419585   14.20525486060418
H         2.53851187875204    9.10538210649098   15.94950969020962
H         1.55242165805232    7.72071103686896   16.46846563858692
H         0.76961683831662    9.19186420156091   15.83694046566530
H         1.34410763942322   11.82192245405756   10.46619301613277
H         0.68311325205947   12.10232370625372   13.02655611062773
H         2.68356427906990   11.08864185148499   14.50510008955322
H         4.56285022834103   10.20840938126577   12.86304001440334
H         2.83102105502253   11.88103937112154    8.49636629350391
H         4.95905388196099   11.57596507425241    6.95578009226468
H         6.91533897360384   10.51724004619227    8.40998439511579
H         6.03000040410195   10.14673135185998   10.87473263317136

