62
CSD_code = DOVTUD | q = 0 | S = 0 | Stoichiometry = C23H30N5NiPS2 | MND = 6
Ni        1.54325804610196    0.64308094779120    6.58070397157047
P         2.11643191716631    2.59757373805694    7.30327220302558
S        -0.86984517424881    2.56900138286120    2.88531637550094
S         6.01644340597524    0.76375782252743    6.82275103955808
N         1.59763214209685   -0.32198931509023    8.83153242005394
N         1.02981890180409   -1.28922265740635    6.19355582342979
H         1.67642584272846   -1.55300067725232    5.45193294078872
N        -0.45870177045452    0.69400087442371    7.19375236419330
H        -0.76976430043575    1.55927351443244    6.75468674016424
N         0.88435511306658    1.40573248535076    4.68099307499818
N         3.34303137524763    0.22890288006142    6.40281388184829
C         1.96788840553909   -1.69245705994825    8.46655584321076
H         1.87489474888675   -2.37875992966262    9.32538040957799
H         3.01375472210975   -1.67194596640808    8.15413470997919
C         1.13864232370553   -2.24580154162686    7.30052965557693
H         1.60831932671859   -3.17928276768381    6.97029237056916
H         0.13304228986182   -2.49522577426038    7.64577723112856
C        -0.32104645700019   -1.20549080805060    5.63694143817389
H        -0.74543166566529   -2.20078716837931    5.44009469805221
H        -0.26089549860941   -0.65763426677077    4.69510175944810
C        -1.21496955999394   -0.42620758114306    6.60931251615033
H        -2.10212981254015   -0.07072518170574    6.07646850764686
H        -1.55516069988964   -1.08137672621469    7.41549818344177
C        -0.60794484031994    0.81381806599973    8.63950564914271
H        -1.65821342203069    0.70404170758441    8.94983615502432
H        -0.27641141429520    1.81510918398890    8.92304794482062
C         0.24307139677079   -0.23641546973379    9.38064248705766
H         0.26332187644569    0.02639238657601   10.44546017370767
H        -0.24805007376189   -1.20953743973032    9.30664163349414
C         2.60298136709777    0.20586703733212    9.75384055794179
H         3.58807284365659   -0.01211086472932    9.33642538785805
H         2.52517964715775   -0.31336783200752   10.72577728158909
C         2.52527922852422    1.71161579185173   10.00286180124814
H         3.11878359584096    1.91806798020294   10.89839753127973
H         1.49704054982150    2.00088687159146   10.22102214863376
C         3.09848724846243    2.55855215336554    8.86593700695219
H         4.08321137297193    2.17288021100465    8.58655155186640
H         3.23223801126435    3.59112703615986    9.20108903138660
C         0.15819543951059    1.90245215823466    3.90196655099290
C         4.47224930228095    0.52256516588890    6.58254566301661
C         0.78818783570292    3.81335232043285    7.60457923961241
C         0.04221393015576    4.18496648043317    6.48684974782269
H         0.27870399005086    3.74313617695461    5.52922287981329
C        -0.97990770570467    5.10768066743760    6.59743570464502
H        -1.54665825104005    5.38510180756222    5.72167974445386
C        -1.27216160782571    5.67191076042757    7.82940040821158
H        -2.07044610644667    6.39318318581939    7.92115179572958
C        -0.53302003454799    5.31222966630442    8.94330217778678
H        -0.75194868222692    5.75606331572386    9.90392788800829
C         0.49189829480650    4.38661398584769    8.83661565973525
H         1.05971969367010    4.12931373087462    9.71851945308680
C         3.19201484466653    3.59834810206434    6.23127346875660
C         3.60950232548993    4.85764577157212    6.65464268777457
H         3.28462241843928    5.24684717467968    7.61020037991591
C         4.42996704332644    5.62036778404727    5.84582659902701
H         4.75594370967230    6.59510758384682    6.17898159084145
C         4.83076770824253    5.13856486197141    4.60956044183653
H         5.47460614619157    5.73731095666868    3.98219612789243
C         4.39702086998441    3.89742898676169    4.17667294583340
H         4.69683631531941    3.52637872703167    3.20817959330229
C         3.57620443719851    3.12818871302758    4.98235819726820
H         3.21594707330975    2.16499887302997    4.64757655454632

