27
CSD_code = DOWBEX | q = 1 | S = 0 | Stoichiometry = C11H10MnO5(1+) | MND = 9
Mn        5.08336222048867    0.69077857323926    8.20645651290841
O         3.95597407585269   -1.08890794579513   10.26613710980683
O         3.20784140820574   -0.29429227570147    6.16322089813306
O         7.22993745577506   -1.17945093373744    7.43792673698661
O         3.22143201282318    2.91790808659547   10.10399406250159
O         7.70751552553617    2.55602375046933    6.95335303283179
C         4.39048863997490   -0.42938894343516    9.44849265307868
C         3.94086237983568    0.04229285667032    6.96289433191589
C         6.37590094233859   -0.49196760433770    7.73202529300564
C         4.29045042183632    2.63509543824800    9.36960253152049
C         4.16132980984867    2.79250668105621    7.96546446658483
C         5.27144367074692    2.72350240465100    7.10940477136419
C         6.56703549647956    2.47952729059551    7.62793231562624
C         6.66795901072569    2.16348444817994    9.01462147303412
C         5.56631804832245    2.24605625305593    9.86787425751934
C         3.23424884481351    2.70677432684200   11.50844697018744
C         7.69653612560087    2.75435245092046    5.54693099991749
H         3.20080294888330    3.11950312925305    7.58344318444517
H         5.14112136997871    2.99268526775098    6.06824542978774
H         7.65978673346493    1.99821033854482    9.42047994154118
H         5.72357295319547    2.13007567420054   10.93358475103865
H         3.97150940745590    3.34489960549462   12.00125983537360
H         3.42152668410191    1.65640838135743   11.74818504448353
H         2.23767292096238    2.98209480502837   11.84684287326433
H         8.74181447393219    2.73142215692721    5.24680540135673
H         7.26625097748474    3.72327660662008    5.28333140576212
H         7.15450544133588    1.94882917730676    5.04284371602475

