31
CSD_code = DOWBUN | q = 0 | S = 0 | Stoichiometry = C12H13CoO5 | MND = 8
Co       -0.79303218599894    2.37696073680687    2.91185873127449
O        -2.04359425083369    4.94931965325377    2.53946488461063
O        -0.91699160178503    4.80262703192739    5.32990780900357
O         1.22870693844945    4.21056556613949    5.62246053573734
O        -0.88463050997340   -0.21617796199740    5.28696249744940
O        -3.05906392616818    0.31268290253655    5.12489593032672
C         0.18299055029537    0.55774536250016    2.51492131444268
C        -1.08128529839340    0.51598768320367    1.87649218834421
C        -1.14819963982479    1.60914761008307    0.99927613942845
C         0.12038553089881    2.29045224911968    1.04448263166505
C         0.94990318277826    1.60633978460014    1.94971418909430
C        -1.55283973919089    3.94082404985749    2.74504159490505
C        -0.22135269225745    2.57045019772352    4.82536143074411
C        -0.04221991416997    3.96959583886959    5.26630977412186
C         1.50974213300705    5.52963791828297    6.06818698083967
C        -1.53276605424759    2.03163866646320    4.75261246697602
C        -1.74738119107793    0.60038135137716    5.06463680395474
C        -3.38632997337443   -1.02732440482785    5.45803235294890
H         0.55330961642221   -0.19143523356607    3.19683353335026
H        -1.82297647050763   -0.25689970270060    1.99190717803531
H        -1.93363659050894    1.81113835844119    0.28739523036989
H         0.42259269640475    3.07809771925504    0.37104699054937
H         1.99674515936250    1.79255859170642    2.12515263719945
H         0.60204028499171    1.90844722205711    5.08295011859757
H         2.58260809980918    5.57198351973665    6.23659077079199
H         0.96772098304370    5.74090418592906    6.99218719274265
H         1.20715648908556    6.25639921532960    5.31159504165240
H        -2.37634768144937    2.66720106468380    5.01397719453274
H        -4.46979146923374   -1.09750255922525    5.40995592597788
H        -3.03128421157544   -1.26649753407441    6.46277254437198
H        -2.92397826397793   -1.72034908349193    4.75151738596135

