85
CSD_code = DOWCAT | q = 0 | S = 0 | Stoichiometry = C36H44N4Ni | MND = 4
Ni       15.64329246631620    8.26656333637594   12.86907754676870
N        15.80797965158232    6.89230205537718   14.19913750655428
N        13.78842672779718    8.50694060434395   13.34194471678027
N        15.47491887601959    9.63880880446787   11.53156220447915
N        17.48756459095367    8.01518865465752   12.38338401466562
C        16.77413989527049    5.92501397609878   14.26852226641279
C        16.48919417370248    5.03741977038017   15.35675774889941
H        17.04374102230404    4.15825439447439   15.61680147252401
C        15.40263889868797    5.52949441724715   15.99422609580417
H        14.91937704887907    5.11935944435496   16.85854718331420
C        14.96443735410944    6.67261389514508   15.25140622210451
C        13.77130471129556    7.34931436198522   15.50682982412703
C        13.10937102988730    7.16841900305621   16.84246158431926
H        12.99241582194041    6.10722905473591   17.06923784788786
H        12.11846677264976    7.61655114932180   16.84487532990207
C        13.93728715909121    7.83746023094160   17.95567747585602
H        14.94134982777247    7.40065797118646   17.95508197669912
C        14.06256058738929    9.33544469239152   17.69342400783946
H        14.55859492150689    9.51689979448382   16.74260121102413
H        14.64230357944645    9.81251438611958   18.48050422419821
H        13.07905862795236    9.80037210730053   17.66096456395827
C        13.28916941078551    7.58151262118242   19.31337669514028
H        13.21469955993232    6.51448003692100   19.51293172693802
H        12.28781501239387    8.00667714949029   19.34346812242379
H        13.87719935104698    8.03710573822061   20.10681313377109
C        13.18977439756230    8.13594436378861   14.51523206583036
C        11.80885031349940    8.51565026166413   14.49161975228615
H        11.09193775515521    8.35544937892594   15.27210715373192
C        11.56596636105508    9.05049234301296   13.27387504010965
H        10.62770959436031    9.42830231797070   12.91933204633266
C        12.81403093827173    9.08096502939075   12.57169129221004
C        13.02121901918040    9.74476530814197   11.36416521678932
C        11.86711990354320   10.14905806350939   10.49263263220904
H        11.92480615993283   11.21250602880999   10.25418122801031
H        10.92129405691189    9.97706672698699   11.00107277446831
C        11.86015426320565    9.33453487214537    9.18532382263876
H        12.81531994821809    9.48789260187888    8.67251039128909
C        11.71038209313630    7.84684860440209    9.48967190152261
H        12.53625773853964    7.49767482516260   10.10529138084078
H        11.70021260918447    7.26917471785132    8.56807116429850
H        10.78104707957506    7.65839095042633   10.02382521229792
C        10.73090715460202    9.81453166887578    8.27790703822411
H        10.84408425987768   10.87099046457569    8.04325655383620
H         9.76671824804817    9.67226919400810    8.76207941829925
H        10.72995345757061    9.25574509609569    7.34484686484824
C        14.31377696348641   10.08822529617532   10.96887145386627
C        14.60622993678213   11.10077625442100    9.99905840778124
H        13.88802237830910   11.62565142618143    9.40133385618817
C        15.94326875099658   11.30076921366806   10.02718062331704
H        16.49753797416659   11.99741102452595    9.43022711029693
C        16.48907042898738   10.35454202597039   10.95449411036429
C        17.84802896314144   10.08760936450068   11.09929999693352
C        18.88629972663817   11.04584022742410   10.59064998575734
H        18.42248799920134   11.85030650536686   10.02453660530111
H        19.58366687879923   10.53354578270808    9.92540618400741
C        19.66817516448100   11.67511482674395   11.75895854995523
H        20.12952679728148   10.87261581219614   12.34385312814443
C        20.76740083332782   12.58618443860860   11.21981656432127
H        21.45552855259568   12.03074732287464   10.58583463067335
H        21.33444469137874   13.02284187022944   12.03873413529965
H        20.33738382351996   13.39529911139582   10.63264755855209
C        18.72283671497611   12.45334746958187   12.66950464183666
H        17.96193803294344   11.79508884454027   13.08276873849339
H        18.22514157064801   13.24613641658541   12.11428099607318
H        19.27250442529055   12.90357637476695   13.49313748103820
C        18.26673665843452    8.88926046714178   11.67902902632086
C        19.57125902103474    8.33104938567102   11.48798630550206
H        20.38000810431157    8.79126395167182   10.95625064585600
C        19.55895087316911    7.09917143566179   12.04494285999912
H        20.36304517268088    6.39216817291485   12.05282723331347
C        18.27326659582727    6.92538542791004   12.65322378503231
C        17.94002251255673    5.87439855271490   13.50536742610048
C        18.89342285793460    4.73092490425229   13.71917884314607
H        19.55559131887556    4.62816172799369   12.86063705869506
H        18.31571416753845    3.80719478149505   13.79274450214445
C        19.74973685025037    4.86905694695372   14.99581561937204
H        19.08125278768225    5.06048102748727   15.84091317442126
C        20.73262290757278    6.03165228108042   14.90865376137699
H        20.21276245482404    6.96270505445669   14.69811823034943
H        21.46884739132214    5.85749958200113   14.12686421665879
H        21.26343670136854    6.14192141431714   15.85208244347525
C        20.50100582376249    3.56379997657930   15.24973040454910
H        19.80926211970259    2.73285014246291   15.37166555713699
H        21.10332479789523    3.64151345413642   16.15210379014849
H        21.16280784616736    3.33746123675118   14.41596270573346

