55
CSD_code = DOWDIC | q = 0 | S = 0 | Stoichiometry = C22H26CrO6 | MND = 9
Cr        0.37417447944287    0.02911792594625    1.34593587129990
O         3.81677128602047    3.91182153791351    5.69957431632606
O         1.99159521065142    5.01382633234243    6.35342356708369
O        -1.07861722848257   -2.33679752988389    3.27218707604797
O         0.86292985652408   -0.41640268344440   -1.55416482842018
O         0.24271023569347    2.75223749592677    0.15980850306833
O        -2.43391765082624    0.09704711675073    0.36256278672156
C        -0.29189035869635    2.59352850504570    3.98848325816776
C        -0.32101591486864    4.01030633583996    4.54826062024098
C         0.73724569644937    4.87960458072669    3.88656700869676
C         2.15053601700020    4.29856540055581    4.04144197428427
C         2.14959891811073    2.85089928199730    3.49512315831969
C         3.51157821664683    2.15731011314638    3.48726719828637
C         3.46709953632904    0.99203923336230    2.50561914618913
C         2.22603434295497    0.15277930880364    2.66520788241411
C         1.10307603588206    0.59180665781900    3.41129008472843
C         1.08938422349546    1.92845583866093    4.14326637016944
C         0.02108234258817   -0.28619242654851    3.56215544992012
C         0.01082492217115   -1.57613524214571    2.98422006301867
C         1.09383474190026   -1.98148483347898    2.20426094167363
C         2.18647509190835   -1.10273606031792    2.05182254006242
C         3.11018772231452    5.18085507807618    3.22155243637360
C         2.60217346674753    4.43810512040872    5.48920653682952
C         1.35263617879107    1.62091845102378    5.62677718291377
C        -1.33591633785617   -3.46302829957545    2.46105435302351
C         4.34075498661980    4.05908912315724    7.01055032960938
C         0.69881407903352   -0.28204300970355   -0.41644396452727
C         0.30953429821154    1.71326064172302    0.67254501468706
C        -1.35732277899478    0.04602745683501    0.78108774068006
H        -1.05586274708437    2.00855599775912    4.50061942789936
H        -0.54737161561927    2.62048765491946    2.92509398733299
H        -0.16311003743277    4.00279243651855    5.62644656508402
H        -1.30637223719445    4.44249488589302    4.36503649131336
H         0.71244691374312    5.87688656904852    4.32793267552530
H         0.51722447537600    4.96832263876548    2.82102741546490
H         1.84437094694066    2.95704143718644    2.44512735366679
H         4.29453713332896    2.84558774378047    3.17670362974978
H         3.77137513501658    1.80180428129853    4.48308402282691
H         3.49468178814374    1.38311542261015    1.48303925852282
H         4.35264689218000    0.36157599337009    2.63299249226208
H        -0.81611907094968   -0.04746037515396    4.20334284021500
H         1.14787488046040   -2.97611863569305    1.78317654414265
H         3.06287052850319   -1.45606468321030    1.51865269576035
H         4.14982220152168    4.93291911772186    3.41450798527014
H         2.95873930358272    6.22577687173660    3.48485167371000
H         2.90670522249723    5.06158084030227    2.15999942653838
H         2.28414634556627    1.07546329799965    5.76209257202303
H         1.39570313214039    2.53040999995910    6.21572411657113
H         0.54739505598637    1.00413731812042    6.02207101007843
H        -0.60876034558390   -4.26262593497302    2.63611034657174
H        -2.32556134807205   -3.81196311212910    2.74936409282490
H        -1.33902712342117   -3.18766466352448    1.40124580662755
H         3.76003965999281    3.46597316071737    7.72103137384168
H         4.30520636785190    5.10596562415465    7.31877042440604
H         5.36792692676789    3.70502466186704    6.97081315387047

