42
CSD_code = DOWFUR | q = 0 | S = 0 | Stoichiometry = C17H21ClIrNO | MND = 8
Ir       10.56702673328144    6.03485751471904   13.88512613363454
Cl       12.16252324907881    6.06058113366491   15.60475531212569
O         7.06417761766877    6.35405054896935   14.08344988822614
N         9.74077846794976    4.41181759773839   14.81294891286914
C        10.26066536983210    3.21622611285852   15.06587026486975
H        11.32454732247000    3.10801587845855   14.90843680581425
C         9.48135573107522    2.16666998734427   15.52364774971063
H         9.93654668274673    1.21051458150956   15.72678211968817
C         8.12079318295821    2.36344247804480   15.70926423485375
H         7.49113707974385    1.55650931974796   16.05170938306060
C         7.58296179150013    3.61602511524166   15.45049258082054
H         6.53261769427019    3.82512504963922   15.57568277472160
C         8.43066040512685    4.61985636037434   15.01855183222414
C         8.06265822184888    6.05351142771115   14.72177361377298
C         9.12552773778747    6.93835022229662   15.18172838381087
H         9.42401867386821    6.76358423528445   16.21569376230819
H         8.90414506247868    7.98870671033314   15.00813525827606
C         9.83608472554096    5.76339126002949   11.78314015648941
C        11.15340183126958    5.18076635394127   11.82866854874210
C        12.06704555088893    6.19907464162672   12.17384423545067
C        11.32275639575107    7.42631061565947   12.37584654927669
C         9.95560923173581    7.15974844424316   12.04094638662981
C         8.58588848097781    5.09539996032723   11.31412319605683
H         7.72231692722718    5.47026132213505   11.86169247612887
H         8.63800570442917    4.01612942552053   11.44410117697928
H         8.42663511259360    5.30337679782718   10.25454747776125
C        11.48919413119708    3.77426878020556   11.44676800652506
H        11.65432211910700    3.71013813224930   10.36947020415844
H        10.67881007542670    3.09377840311505   11.70275207008947
H        12.39174661867540    3.43592680895154   11.95082202852831
C        13.55642520622525    6.10544490347130   12.23655407762130
H        13.89930642750769    5.11008408464033   11.96742339869379
H        13.91055498822699    6.33244241611394   13.24198198854518
H        14.00069774369441    6.82694316016275   11.55066687232305
C        11.96173188168255    8.77308494320872   12.52684658592372
H        12.33010474420082    9.12220974372292   11.56006997077660
H        12.80148893610158    8.71996299097051   13.21564849108756
H        11.25202741647932    9.50250552476099   12.90843565904994
C         8.84053267197380    8.13999282031858   11.90285032690733
H         9.12384612907359    9.11669744914753   12.28522342330101
H         7.95431109762182    7.79663950811617   12.43744791061859
H         8.57391482870611    8.24257723559697   10.85007977155035

