42
CSD_code = DOWFEB | q = 0 | S = 0 | Stoichiometry = C17H21ClNORh | MND = 8
Rh       10.72640225732596    2.41031689520429   12.12227747438751
Cl       12.20643261506841    2.13322584796347   10.37401712325648
O         7.23318571401432    2.46792538485979   12.05122447797747
N        10.05291920634715    4.07513454308118   11.13245636658037
C         9.16523240639993    1.58929290437256   10.92117709640053
H         9.48355948007181    1.68490290198462    9.88398665130516
H         8.84487002600240    0.57467730130897   11.15876637937675
C         8.23158341686154    2.61220023164772   11.35612810995814
C         8.73296583676148    3.97403219204832   10.93517076026547
C         7.98697963513239    5.00867613157366   10.39778514094933
H         6.92117355874312    4.89349676033665   10.28135579233378
C         8.64751790869909    6.16865509194349   10.02146014660682
H         8.10186333975814    6.99529619378148    9.59208317159765
C        10.02073737809738    6.24889576546976   10.19998454164604
H        10.56752900707598    7.13025843667053    9.90483786082154
C        10.69230902647182    5.17872572855647   10.76931283309773
H        11.76317035691630    5.19613163590582   10.92697356677498
C        10.14986734872306    2.84936609292362   14.21060157792235
C        11.53644626979677    3.23320479150198   14.05934981914542
C        12.27013596824598    2.07457125098232   13.71238885998395
C        11.34208630875851    0.97084478834337   13.59167155788577
C        10.04940978631090    1.44476880772512   13.99964955407475
C         9.03807392298222    3.70508119713289   14.72745000668541
H         8.91685753961320    3.54097594189518   15.79985311528508
H         8.09890103891316    3.44746044839871   14.23978790999483
H         9.23791419895166    4.76218627012529   14.56436851548631
C        12.10358998567348    4.57932685852367   14.39218537649737
H        12.34756913540462    4.61988340998432   15.45582501757307
H        11.38786566679391    5.37169621411717   14.18047554144782
H        13.01082113688459    4.77453441351410   13.82468156526598
C        13.75131617572806    1.94522538971204   13.56054787697041
H        14.25575644217997    2.86481004438609   13.84460871069298
H        14.01061710439942    1.71265896066036   12.52736734460892
H        14.11388102573422    1.13395142779772   14.19128994806899
C        11.76232893390117   -0.45825930665185   13.42561704186842
H        12.15224201768945   -0.84086650421617   14.37126433119881
H        12.54329153298754   -0.53942651822373   12.67269632499783
H        10.92494383762577   -1.08076745762543   13.12030644909580
C         8.81371742303089    0.64490025196272   14.24151715004802
H         8.57759858179155    0.66180476317120   15.30628770611690
H         8.94294183429772   -0.38803074296532   13.92990779020490
H         7.96329561381770    1.07165526011215   13.70700341553811

