30
CSD_code = DOWFAW | q = -1 | S = 0 | Stoichiometry = C15H8FeN3S3(1-) | MND = 6
Fe       10.71369652293446    8.77248797495484    2.60077944827195
S        10.73966004073667    7.27524757314467    0.78233148371175
S        12.17648917365607   10.35686892622581    1.66647531226247
S        10.45714212607237    9.69286130435731    4.77695999843043
N        11.91865758690111    7.33763904046957    3.00505161120403
N         9.62350977841574   10.09388863773327    1.71094963416237
N         9.26266978147425    7.94295313073002    3.41481553526360
C        11.89223218367510    6.60522045165454    1.88305285878536
C        12.69595025679597    5.48260037049650    1.70929537691844
C        13.52681174429544    5.13010627557059    2.76056276608566
C        13.57390164552114    5.92155077019486    3.89754720614780
C        12.75821914562686    7.01324466854854    3.99939763990142
C        10.60070107816353   10.89866136651018    1.26126205434512
C        10.29837817373456   12.03504708652375    0.47915176097958
C         8.98981766435125   12.30533654412123    0.23044045759621
C         7.98604498054983   11.50053627763579    0.73963977667777
C         8.35795149071622   10.36815373732789    1.44864142981838
C         9.15690141730724    8.59284873711522    4.64766862384560
C         8.12344034521008    8.33495882441253    5.55459001642073
C         7.12269679793966    7.39633613518501    5.29107372611726
C         7.27270728738548    6.76467113498376    4.06234149606620
C         8.27058050688745    7.12816160216153    3.35454492006766
H        12.64986548096867    4.92450839536295    0.78590830792109
H        14.14956786918117    4.24712095869531    2.67898435107230
H        12.74130502208778    7.67425647483313    4.85563985209360
H        11.12115672640416   12.61641148115232    0.09355098369990
H         6.93891256673255   11.71205969718098    0.58194778934622
H         7.62719234029480    9.66486409061997    1.82835990143068
H         8.12226787236174    8.89365459567441    6.47646409948170
H         6.31967239361880    7.19414373642403    5.98427158187507

