63
CSD_code = DOWHAY | q = 0 | S = 0 | Stoichiometry = C14H36N2O4P2S4Zn | MND = 4
Zn        6.33389812439472    3.20623021600000    1.57137989064608
P         9.10665888196196    2.83928962632868    0.87957260728128
S         8.36475140337401    4.64015416737052    1.32546405923952
P         4.02183935042227    4.81894448507720    0.93980704257746
S         7.81743539724109    1.32386174050565    0.61815268714634
S         4.70924214394681    4.82649022416541    2.80007138910542
S         5.12544780098028    3.89020389746849   -0.47771084665454
O        10.13276374176954    2.87416644548235   -0.34195866745371
O        10.09659743758589    2.52160791416568    2.08778623523813
O         2.59209705409174    4.12490856829804    1.04150494989703
O         3.60978074615819    6.25981541233791    0.39342751468896
N         7.00171508723815    2.61155421958249    3.61144841730781
N         4.86284152908322    1.59783313614606    2.09363923071549
C         6.40889612502430    1.32139002906505    3.94511040026424
C         4.93955494603648    1.34674250290313    3.53038810312343
C         9.70873160204336    2.76646550697893   -1.70980006310054
C         8.86187700073961    3.96167536034855   -2.11336389386075
C        10.98256761313447    2.65336659945203   -2.53417598184754
C        10.86676571826755    1.30711760506860    2.11172831637588
C        10.69923564866686    0.68663453391175    3.49145465232152
C        12.31615703988090    1.64149148395501    1.79933307735244
C         1.77733784596619    3.94970966563122   -0.13273455317080
C         0.50194254213795    4.75472033433843    0.05304069709583
C         1.51602703480700    2.46031839811423   -0.30213279942659
C         4.54447217622168    7.14776412488846   -0.24015046239267
C         5.63334629682687    7.57560870944693    0.72920561218133
C         3.72346698934236    8.32416619559319   -0.74702323647844
H         6.64924076205129    3.33078711295921    4.23888918918027
H         8.01326008779770    2.58976078737716    3.71007166354617
H         5.12154761493292    0.76070863730347    1.57644864366482
H         3.91339295034139    1.84697675152379    1.83088805648201
H         6.48911648827206    1.08664933293620    5.01331198198349
H         6.92667273007249    0.55061684598003    3.36766813103994
H         4.45614131979087    0.40433924635081    3.81324302248206
H         4.44228297049122    2.17504158268615    4.04067941571220
H         9.11368902033915    1.84721284630301   -1.80235419027218
H        10.46383048580358    0.62594080593973    1.35023166160877
H         2.33281227848755    4.32245794960729   -1.00260774504428
H         4.99562155943462    6.60787206044456   -1.08413890174341
H         8.64773068703766    3.91909311927334   -3.17779227140227
H         9.38914656314440    4.88561383562173   -1.88545588293343
H         7.91706048689175    3.95589039954914   -1.57099850925464
H        10.73087148502301    2.50726580995388   -3.58047292533231
H        11.57774562025751    1.81011776562181   -2.19214459278753
H        11.57012363457083    3.56232590714471   -2.43015013744354
H        11.30826368346025   -0.20952090235969    3.56843426014417
H         9.65844685364309    0.41830988179154    3.65878802493948
H        11.00996988556609    1.39657976317725    4.25440691161345
H        12.91389585765748    0.73389486147802    1.79182093956512
H        12.70610710773944    2.32393358994754    2.55058933226800
H        12.38066969892800    2.12240869545805    0.82693023076517
H        -0.12783440536693    4.66239699382837   -0.82767962862361
H         0.74965691245079    5.80164861576374    0.20908707831731
H        -0.03984390121236    4.39247647981437    0.92334544747076
H         0.86043839631914    2.29563677644008   -1.15251736730301
H         1.04508116939209    2.06235021732804    0.59408146938145
H         2.45431597074898    1.93813224889406   -0.47758552279034
H         6.26651612662779    8.32636332309454    0.26446545538424
H         6.25529496047621    6.72426570595126    1.00503434399107
H         5.18791627447857    7.98692448768451    1.63255544151936
H         4.36293754603451    9.00774569574028   -1.29767139182891
H         3.27609782599408    8.84974184671253    0.09307772426098
H         2.93043601670091    7.97370982064520   -1.40314373398615

