83
CSD_code = DOWQUB | q = 0 | S = 0 | Stoichiometry = C33H46N3Re | MND = 4
Re       -1.86195692963442    5.24781767837444    6.46417479446742
C         0.10001762407291    6.03300363283426    5.79071097277416
H         0.76878233993817    6.17956537832263    6.64337366465154
H        -0.01867743560153    6.99264211979919    5.27947718271028
H         0.57508627188833    5.33357406393613    5.09739143792908
N        -1.40182727737392    3.83526789556615    7.44099924134745
N        -2.50456317546058    6.63234694492895    7.37789295492305
N        -2.66237439455314    4.90764539030162    4.91277582488256
C        -1.27882575796762    2.71030155690709    8.15102717929928
C        -0.42112158663844    1.67744313306118    7.68661649848896
C        -0.26502149529565    0.53946061097187    8.45345229782790
H         0.40201520690822   -0.24138602459313    8.12225144998804
C        -0.95967525532891    0.37582703145274    9.64036937941267
H        -0.83064406369431   -0.52532132921132   10.22139217817318
C        -1.82165029839333    1.36567805005625   10.07892241510909
H        -2.36670152731843    1.22158886720411   11.00003005389666
C        -1.99060901478510    2.53823285284613    9.36691227845523
C         0.34363966283664    1.89332257664001    6.40387785245255
H        -0.23460400410322    2.59714692953249    5.78860109738270
C         1.69318711966814    2.54554061687032    6.72252859372135
H         2.24537634453884    2.74351609252950    5.80606673286000
H         2.29027842412169    1.89027247468803    7.35414002464833
H         1.54063330208207    3.48646979317939    7.24708080890848
C         0.54125087252298    0.61070874581162    5.59848954609213
H         0.92847146908552    0.85314726970138    4.61088635151913
H        -0.40274918470153    0.08324646205031    5.47853948334826
H         1.25314553004872   -0.05434130478839    6.08161642993219
C        -2.94846906441059    3.60173023005044    9.84681303654036
H        -2.88743147788000    4.45796562433095    9.16140057786039
C        -2.57647390093267    4.09555809622512   11.24532485971086
H        -1.54355615289374    4.43571380292458   11.26286344279899
H        -2.69176533510731    3.30611825034469   11.98432663459612
H        -3.22059589817898    4.92620787612969   11.52685067504613
C        -4.38774626327328    3.08240249931533    9.81521886488404
H        -4.64408419306756    2.73797948076370    8.81534357945580
H        -5.07751463841011    3.87604652916251   10.09427521175264
H        -4.51590830822831    2.25291911424508   10.50701632051701
C        -3.18599890842146    7.46536080183402    8.16954326829317
C        -4.52433235099896    7.81821476209725    7.84574941800450
C        -5.21671713434638    8.65229116049305    8.70238876652900
H        -6.23954919811794    8.91602698060016    8.48328316285578
C        -4.61566200697183    9.16990155229293    9.83769894031307
H        -5.17172149009642    9.83022783044929   10.48687812603676
C        -3.30365488594954    8.84731565582807   10.14294838920103
H        -2.85212474067449    9.26698763428891   11.02825477723547
C        -2.57633263578588    7.99095118135285    9.33970196190461
C        -5.15152788246382    7.22072807158157    6.61065115827094
H        -4.35518779213339    7.09965443994777    5.86426464134190
C        -5.69237404507226    5.82284143744786    6.93442049494065
H        -4.88280332017434    5.18019230461985    7.28654308245874
H        -6.12460158872455    5.37258141843454    6.04318760607133
H        -6.45566467830916    5.87944260813220    7.70821365759745
C        -6.24687745263107    8.08874802462150    5.99686307231415
H        -5.90265026721874    9.11304758325285    5.87116700934154
H        -7.14159069329018    8.09203324639502    6.61518083583666
H        -6.51689765104062    7.69299997870411    5.01998545193691
C        -1.13654838703979    7.63869780919601    9.61857250181678
H        -0.97019885051980    6.61720220198971    9.24803354878683
C        -0.22698597252523    8.58205328317889    8.82258081202412
H        -0.44494541550007    8.50742909004445    7.75926168235961
H         0.81809668925384    8.32492381924025    8.98263870327626
H        -0.38402289192883    9.61237510833053    9.13705553415960
C        -0.77456057145865    7.67608535116138   11.10116857482069
H        -1.49673664889035    7.11496605527652   11.68950673184382
H        -0.73791970525061    8.69823321866878   11.47138048423550
H         0.20823501350563    7.23308905624954   11.24925216134986
C        -3.54906397939766    4.63692791354123    3.95346329318231
C        -3.80390166866467    5.56927740023839    2.91800652071716
C        -4.75115853387177    5.26650884968314    1.95819415608911
H        -4.94059358847088    5.97550567450095    1.16454703812626
C        -5.46275091924850    4.07906644996147    2.00489336753538
H        -6.20543084023423    3.86414450772599    1.25121670489408
C        -5.22016616475365    3.16633386885701    3.01967577524619
H        -5.77744397267839    2.24070933139889    3.05290384452404
C        -4.26799702334010    3.41320507533513    3.98869543056857
C        -3.01475283492585    6.84002565582066    2.86057105384469
H        -3.56262896732046    7.61170527364586    2.32490247688960
H        -2.06708922028847    6.67177474657090    2.34612751943837
H        -2.78458902488640    7.19103733390387    3.86719221360960
C        -3.99444058901175    2.44258497078189    5.09315461311570
H        -4.68466281855169    1.60361806831926    5.05694861361296
H        -4.08073620903196    2.93655353275284    6.06526786108660
H        -2.97327571704623    2.06466066880452    5.01753503399139

