78
CSD_code = DOWSOY | q = 0 | S = 0 | Stoichiometry = C34H35O6P2Rh | MND = 5
Rh        7.52765922684144    2.91826555100814    3.34297021664212
P         8.90181341425778    4.39513410031147    2.35461186672177
P         7.54614697806494    4.38099199517276    5.04510119848484
O         6.29222908891713    1.72590840116141    4.45315524086825
O         4.45464477300409    0.52013333407887    4.27351086949709
O         5.82799866655005    2.38180158444271    0.05434213622856
O         8.06535362995814    2.59135545339896    0.04873354258658
O        10.57871120576645    2.91148633232687    3.83196462419353
O         5.10358123356445    4.23394740961208    3.57697944892130
C         8.34378739911353    1.18924985208511    2.37676521938428
H         9.21821096959246    1.41447392566652    1.77803654110405
H         8.46071786847313    0.37774737214493    3.09128316516499
C         7.06803513487029    1.43172675138934    1.85795863443505
C         5.86757571773697    0.65345955738598    2.33395884849900
H         5.00352712233956    0.85749848796820    1.69901727747771
H         6.06621383553431   -0.42129206709032    2.30024495461636
C         5.48022878243691    0.98532331902281    3.81049958041322
C         6.89260610416484    2.17897269353571    0.60024118461237
C         7.96975312473275    3.11890909220632   -1.26283221870927
H         8.96962010602912    3.06386706365481   -1.68783403490277
H         7.62077571460352    4.15359548434242   -1.24196808594783
H         7.26917491917250    2.52528949040412   -1.85451923664166
C         9.44127695446216    5.67857810052395    3.60827885782707
H        10.23452505952807    5.24848523616268    4.22112616910626
H         9.82668079731166    6.56615095601561    3.09829036550043
C         8.22826035763394    6.00264966793788    4.46950615998786
H         7.44775440606899    6.46858496961786    3.85679922005111
H         8.45878463355590    6.67609689837191    5.29892390170713
C        10.50931542284520    3.84482355056601    1.71140811300043
C        11.20234962899265    3.03900520198796    2.63229868120547
C        12.40573173581777    2.44910699735493    2.27649647290194
H        12.95182458211227    1.83355171579643    2.97418571583039
C        12.90779931550834    2.64706283097131    0.99892222541538
H        13.84560154432847    2.18790201548736    0.72394035552597
C        12.21347432994820    3.40804747867298    0.07656504295716
H        12.60467291812905    3.53821850643026   -0.92114222890222
C        11.00882574418327    3.99624835384032    0.42933922792780
H        10.45414192011733    4.56796867764095   -0.29828630861210
C        11.07718620205877    1.98184554059086    4.76741740145439
H        10.34667605994738    1.95403971881107    5.57438562008979
H        12.04761685634888    2.29964349282421    5.16360646319479
H        11.16966254929437    0.98583296281570    4.32595928519037
C         8.24330909252195    5.56712668451988    1.12233142571104
C         9.01685911505146    6.53785916421793    0.49207516019940
H        10.07673082754549    6.60405142988047    0.69612322462759
C         8.42919115525080    7.42403345101996   -0.39274243997104
H         9.03497449304968    8.16909566794086   -0.88841774812316
C         7.06657364149875    7.36382803779680   -0.64162004860841
H         6.61495061540677    8.05699979433899   -1.33595537947163
C         6.28547209816734    6.42260703488252    0.00825288717634
H         5.22179069932652    6.38045477845417   -0.17334277627531
C         6.87406347933045    5.53054844960346    0.88747852949993
H         6.27990255314602    4.79050838013731    1.40644380236309
C         5.90959195691054    4.78401358459466    5.71030811300767
C         4.81360053936552    4.57662114755565    4.85687569951406
C         3.52727228923830    4.75336515865845    5.35530462258586
H         2.66413082761876    4.57414795835095    4.73482699006759
C         3.34223948794115    5.15388626861714    6.66741660771030
H         2.33708598318388    5.28523763644327    7.03956016835854
C         4.42262571736033    5.37977734359307    7.50237247536486
H         4.26658161424326    5.69107355241691    8.52391390599142
C         5.70477391632317    5.18068640367158    7.02381110501233
H         6.55843685000288    5.32090679254242    7.67225361696027
C         4.04047852452023    3.77273103181574    2.75775401520498
H         4.48803022104004    3.42253526083139    1.82741171958946
H         3.33991684615021    4.58531800811052    2.53839812377184
H         3.51361760213289    2.94124563506454    3.23291904910964
C         8.47859913400955    3.93271417574806    6.53598620629345
C         8.10964473442056    2.71099996745613    7.10112778788843
H         7.30492827357613    2.15132197169547    6.64216474473782
C         8.77141188010822    2.23032447637190    8.21414407455950
H         8.47885207785506    1.28762974718883    8.65237312879154
C         9.81782534049971    2.95650307738572    8.76469804041807
H        10.33951177641796    2.58147189402770    9.63295928162918
C        10.19731601840162    4.16091429686785    8.19753196484816
H        11.01519958689608    4.72416327429160    8.62399599634272
C         9.53312720051456    4.65131006867441    7.08489309735662
H         9.84195779699749    5.59350033858780    6.65653111274875

