125
CSD_code = DOWSUF | q = 0 | S = 0 | Stoichiometry = C48H68N3O3Si2Y | MND = 6
Y        11.66391699436829    4.60012077253303   11.04085197671381
N        12.56232743171436    2.70354530770387   12.03021108088961
N        11.18702856465452    5.82815446137237   12.98938440071206
N        12.19562593003642    6.35442344798316    9.89648442397389
O        13.70346821283724    4.96940042543182   12.89758134109491
O        11.71995245348825    3.27204304788574    9.45945909620872
O         9.80220171957412    3.83614942764689   11.70440672508994
Si       13.82275899868448    6.57838723775898    9.38378128010518
Si       10.90973010281816    7.35286281911180    9.33763075715333
C        13.23278983451656    4.09099002729828   13.86534993010320
C        12.69216076006058    2.87469767502399   13.40864501586900
C        12.22999950675424    1.95491301404686   14.34935878939053
H        11.76544564191078    1.04180786792438   14.00842846991702
C        12.30576185564619    2.23358353547582   15.70191119254308
H        11.93031458071404    1.51708105882344   16.41631267985357
C        12.84812353488100    3.42913864156127   16.13882571660266
H        12.90640329065173    3.64768135469896   17.19371553288956
C        13.31142068339797    4.35928478130773   15.22161862684791
H        13.72637829433989    5.29932912215108   15.55527345312324
C        13.50780455698641    6.31498920507171   13.20795320846231
C        14.56737558047281    7.16476717776007   13.45295337800809
H        15.57575759402768    6.78305422419914   13.41248916908115
C        14.31541214081491    8.49913136173238   13.73920972554346
H        15.13914511662450    9.17053140007684   13.92420567446381
C        13.01353936243981    8.96719228430652   13.78171466909424
H        12.82345763346910   10.00765074257565   13.99818244572048
C        11.94785767534514    8.11428825633447   13.54680278368689
H        10.93402964497648    8.48654443391163   13.55803715041310
C        12.18207189750886    6.77495489842775   13.25420700440492
C        11.96753191920854    2.03995838503143    9.18851579920552
C        11.72596639943364    1.50950593224255    7.87487951680554
C        12.03306539766396    0.19925864967332    7.61757637058148
H        11.85680909230009   -0.18819763553131    6.62858442383116
C        12.57405149526534   -0.68804208472422    8.57060642338917
C        12.78944985870671   -0.20057882094733    9.82861181736995
H        13.19292145606987   -0.82749646497442   10.60835597580481
C        12.49789418782018    1.13935328058211   10.17185893489954
C        12.72830536649462    1.51960918877593   11.51550629181163
H        13.09636456213357    0.71930997215006   12.16851373439744
C        11.14557527684473    2.42816348545172    6.80592419723649
C        10.93351417203511    1.71857044167447    5.46342327464841
H        10.51022527309000    2.42435394658647    4.75155976112936
H        10.23920189844680    0.88656866855153    5.56021469306686
H        11.87418565574728    1.35727246745854    5.05357508337326
C        12.10947341808505    3.60054770034403    6.57518341521688
H        13.08795630969896    3.22878611483741    6.27514101498470
H        12.21972554132086    4.18836724491485    7.48327173862278
H        11.72765311611421    4.24657226515068    5.78678371689889
C         9.78381700367526    2.95665078681346    7.27845846311550
H         9.89446079955823    3.53457623146953    8.19373081998786
H         9.10399609807907    2.12775361906952    7.46666455777526
H         9.34604292180493    3.59648101234841    6.51457396897146
C        12.88450292642800   -2.11713408626735    8.15342953040392
C        11.59367558127837   -2.79772710429978    7.67711673234722
H        11.17003064389169   -2.28821935407388    6.81635491718832
H        10.85266620897600   -2.79487238815046    8.47368070111146
H        11.79506047749911   -3.82934712484678    7.39577831229894
C        13.91307426623896   -2.09538008556390    7.01403624068469
H        13.52910973821134   -1.57340146190943    6.14220343988179
H        14.16717693306238   -3.11103322881833    6.71761988448570
H        14.82129368840141   -1.59243533553935    7.33916141825473
C        13.46436454587808   -2.94737846826869    9.30185229276129
H        13.67138567844650   -3.95696933026104    8.95243445860583
H        12.76078982385755   -3.01530707956455   10.12822909013506
H        14.39668933333339   -2.51824914902988    9.66109838613813
C         8.99805478739636    3.84422073568288   12.70716496977037
C         7.92015139024387    2.89912726100001   12.80891734541941
C         7.07407988171421    2.96761511698782   13.88466231068326
H         6.26714592223829    2.25801024772710   13.95287606179777
C         7.18562459018937    3.91644709985855   14.92126823800769
C         8.21102522590610    4.81578003833663   14.83850344814223
H         8.35939657970274    5.56604852221635   15.59952197513477
C         9.12859773987612    4.80321524145864   13.76471201098263
C        10.18453207781053    5.74284712722978   13.81257672177236
H        10.16871605420610    6.41995666234266   14.67607312835976
C         7.74334803200963    1.85546911356290   11.71125786641143
C         9.01494019739211    1.00078328751549   11.61107429082726
H         9.87134501842274    1.62064502213289   11.36008662114446
H         8.90108286288471    0.24556188949931   10.83558058920091
H         9.20689874672934    0.50012100957245   12.55901884859269
C         7.49113358414873    2.57104344863450   10.37727495083902
H         8.34358235112636    3.19028270668802   10.11294701680621
H         6.60731322034605    3.20232859464585   10.44915743923740
H         7.33446725621020    1.84158386372709    9.58534828002735
C         6.56327893986006    0.91140201564985   11.96899147419058
H         6.49965746939172    0.19146448719242   11.15541272868359
H         5.62253433041757    1.45616891509190   12.00516631271043
H         6.69442629898244    0.35673191888260   12.89569855770394
C         6.17607268434688    3.88725554555584   16.05825496408123
C         4.76763902670105    4.10418761960208   15.48752867218563
H         4.71842341282838    5.05687007858567   14.96474918343194
H         4.03377692001233    4.11198398611997   16.29083396274715
H         4.49694509324684    3.31844225263278   14.78798390568928
C         6.24784884511335    2.52515175463262   16.76265290936387
H         6.00192186193927    1.71295218599373   16.08444677105496
H         5.54793507562907    2.49598487226594   17.59520434923419
H         7.25115388469798    2.35546458128967   17.14783652231363
C         6.44118247537722    4.97691377595092   17.10071890010819
H         7.42198457146510    4.85294195273132   17.55397731616701
H         5.69498498354665    4.91344019607548   17.89021451659709
H         6.37606695630681    5.96684594125998   16.65556173250354
C        14.79341561277813    5.00048461457691    9.89673325252237
H        15.26244825866210    5.11364260729836   10.86920089195633
H        15.57898895718205    4.77121746484382    9.18329858077444
H        14.12948716023845    4.13217767461617    9.93856451984461
C        14.10040507837587    6.82071332589552    7.50371168878471
H        13.67204888342629    6.01903354060567    6.91351474378438
H        15.15986968241461    6.87443515814718    7.27138673031944
H        13.64855534462710    7.75078971092330    7.17580426794985
C        14.65671260388981    8.11211654205913   10.18664130072941
H        14.76794328708462    8.90773743927599    9.45807607848784
H        15.64470983874769    7.88634795877849   10.57440805803393
H        14.05958674860978    8.49971197056361   11.00358296364676
C        11.22362615664657    9.21670865380868    9.63972409070744
H        11.48270557096311    9.41365176935277   10.67496863213667
H        10.35294696873724    9.81508780553288    9.39303132502057
H        12.04816856912396    9.56184386571561    9.02704677755730
C         9.33117540889997    6.85437208764900   10.31083076110791
H         9.21257575124520    5.76797433042593   10.31970478834807
H         8.43908222434277    7.27087932145074    9.85238860107954
H         9.35927799940378    7.20536871271785   11.33933818776154
C        10.46419845235394    7.13655992248025    7.48464942244876
H        11.27757835803816    7.46153319875947    6.84632928637867
H         9.58524497477094    7.71562502418867    7.21786846764056
H        10.25981310212794    6.09651003153733    7.25234659570629

