54
CSD_code = DOWXAO | q = 0 | S = 0 | Stoichiometry = C7H25B18CoO2S | MND = 10
Co        0.98324207400459    2.65363381694784    2.82263571956671
S        -0.64845749561533    0.36561826533426    1.81972626885502
O        -1.75873063505638   -2.14791599049971    4.60200362853227
O        -0.83237548320737   -2.28680067717377    2.56145365487382
C        -1.73277114171173   -0.20913615560573    3.18742325608147
C        -1.44655588979299   -1.64582678137413    3.55594842328316
C        -0.44738175295565   -3.63346999969107    2.79732889378023
C         3.11404731855893    2.37556114826287    2.94227331591898
C         2.46632948137536    2.29207692988429    4.33305300469436
B         2.33760804328051    1.44546955432824    1.82577279505945
B         3.87824007384051    0.89190663159674    2.50488585525081
B         3.97828471615328    1.47608735158169    4.13955583857318
B         1.15310421937638    1.29465901493042    4.36165971012176
B         1.02533688327528    0.67374948044209    2.71293797292215
B         2.50556672778590   -0.24019361141306    2.36794404167216
B         3.52683629963734   -0.22083083706432    3.82742935953954
B         2.68943949205018    0.73981366746246    5.04650486223903
B         1.75121572733464   -0.33232656973239    3.97098263282703
C        -0.00302334644300    4.49826304624337    3.32460042260627
C         0.63879430318760    4.58517806359005    1.93175834397004
B        -0.89523091874729    3.12773777734596    3.52821838122649
B        -1.71740964103770    4.67037983711005    3.24761290419188
B        -0.69524401440460    5.64445812116914    2.23106777303498
B         0.27350970750437    3.28792342912218    0.98470187413466
B        -0.77266293383913    2.27939614195372    1.98388345445859
B        -2.22669362727058    3.21239125083712    2.34983744760567
B        -2.09852008625296    4.79560489981507    1.53086969516303
B        -0.54320106739336    4.83513331085837    0.69975355948720
B        -1.48686455746194    3.32226556903707    0.73947608712501
H        -1.61274006535965    0.41794631643312    4.06838737728161
H        -2.76377273238762   -0.13240915765584    2.84012017211439
H        -1.23092169883023   -4.16172974202024    3.34317780921934
H         0.47436695772156   -3.65148893674217    3.38156772641400
H        -0.28346331361897   -4.08180873941238    1.82123891085246
H         3.60362085153555    3.30773462584891    2.67397038635299
H         2.53447649532056    3.16891638089873    4.97128774207242
H         2.45070923271258    1.68303871181790    0.68418701083730
H         4.82348131468833    0.92769334969203    1.80703358945130
H         4.93311427171292    1.96623025450480    4.61798384351253
H         0.35796733202661    1.40945125521445    5.21704429230327
H         2.50940355014939   -1.13119053679833    1.59800522517713
H         4.24490091526447   -1.10737810799004    4.11380804674582
H         2.76005629654314    0.66017018077000    6.21719240573507
H         1.21329268312011   -1.29266028129563    4.39447886221633
H         0.52668542291495    4.96532250739851    4.15042947527855
H         1.58780841596643    5.10789507866623    1.85058597595260
H        -1.12869905296277    2.74837088848382    4.61421262893937
H        -2.27755369269713    5.15626629554705    4.15990994388214
H        -0.46760383822941    6.78306767667939    2.41142514810479
H         0.96185166706315    3.01190312046600    0.07796166777962
H        -3.26439455278130    2.69366594421043    2.55969005057445
H        -3.03714751808639    5.38644994342797    1.14048110520259
H        -0.23857633842750    5.44144999513532   -0.25993308643886
H        -1.97629507953505    2.86968629141729   -0.23074548635884

