55
CSD_code = DOXCEY | q = 0 | S = 0 | Stoichiometry = C24H26Cl2P2Pt | MND = 4
Pt        2.28939459891444    1.11280598328072    2.19703847964829
Cl        3.46793850021391    1.25299217979988    0.24282287932013
Cl        1.31702426437254    3.18748430546734    1.98311771661487
P         0.91587160274627    1.26257214072840    4.01252853596903
P         3.25745096154123   -0.89290794221155    2.61619059043557
C        -0.81157335889526    1.23377039317416    3.46698894380525
C        -1.08252680698008    0.73173778067802    2.19984425309442
C        -2.38826243371344    0.67117942889309    1.74980310671308
C        -3.41980716828493    1.11113901783598    2.56413117309475
C        -3.14806567803065    1.60789272533734    3.82927484679004
C        -1.84447991954070    1.66755574234046    4.28788894087585
C         0.97841404358146    0.04037786924752    5.33448894883155
C         1.29878755347038    0.62221854261664    6.50576501434255
C         1.39967594076554    2.08024030506758    6.42379578648450
C         1.16230187934984    2.57875768167142    5.19304574981387
C         1.53075558885195   -0.10009837233433    7.78904269436179
C         1.73081829595498    2.90091906734459    7.62332253706151
C         3.98719991556234   -0.83739700355270    4.28136087734120
C         4.22690326679731   -1.98290956369737    5.02897535787637
C         4.77149693540148   -1.87113561175735    6.29566444284097
C         5.08430088253708   -0.62389414482388    6.81271743111593
C         4.85488016664458    0.51880007563048    6.06287521318636
C         4.30445071497768    0.41316759184648    4.79934252705975
C         4.50906898470762   -1.61719575877406    1.56042037107753
C         4.09276252001126   -2.80458936219094    1.07979909229727
C         2.79389652828723   -3.23482552642580    1.60777531710892
C         2.25547082592706   -2.37324047729844    2.49458298888637
C         4.84770343715773   -3.64159963876551    0.10560473074581
C         2.17152716647986   -4.51785866296680    1.17574165434712
H        -0.25589088921031    0.41097654055592    1.56752459398626
H        -2.60234882199618    0.28951774710857    0.76251539817133
H        -4.43933385608942    1.07220237399255    2.20973915990376
H        -3.95556229206014    1.95347043192910    4.45818348929523
H        -1.61933350154367    2.05572436429333    5.27144973815504
H         0.86683707934248   -1.02079251073927    5.18665345716757
H         1.19966880588026    3.61730346214359    4.91162150726235
H         0.83599380895423    0.24495493678682    8.55390485460540
H         2.54311274340473    0.08465697242414    8.14618111164934
H         1.40149405331710   -1.17053938890117    7.65299758780924
H         1.78108282792585    3.95489989427728    7.36391719569682
H         2.69030332726999    2.59357820165680    8.03760316565917
H         0.97663758539311    2.76576419401105    8.39818435782001
H         3.98182656970917   -2.95163901083499    4.61724858586519
H         4.95369377854898   -2.75919325263901    6.88312659862893
H         5.51029113815622   -0.54444747279552    7.80247490617756
H         5.10313209771934    1.49074375969103    6.46319986432119
H         4.11309051584693    1.29974111107929    4.19825349618267
H         5.41640247951659   -1.10855755774047    1.28403452802613
H         1.29696341224533   -2.49224760200939    2.97267263375984
H         5.04944356581080   -4.62836396479226    0.52137958463019
H         5.79047278250387   -3.16781265665182   -0.15283163911496
H         4.26421818596979   -3.77446690405666   -0.80457529091652
H         1.99834917100843   -4.50531212972853    0.10037228081624
H         1.22183871282102   -4.67486742463692    1.68061675378561
H         2.83133751074642   -5.35645288058787    1.39570187953079

