115
CSD_code = DOXCEZ | q = 1 | S = 0 | Stoichiometry = C54H54CuN2P4(1+) | MND = 4
Cu        5.03953868968018    3.72802929315987    5.94466291071196
P         3.08797875041685    4.22386226039712    6.82508207302685
P         3.31082807283751    4.27774980577577    3.97758819351096
P         5.19786761064398    6.23270202700586    5.01324077337707
P         6.67400552102088    3.84603819094369    4.48036359441887
N         2.25810678273138    4.42725212581217    5.36231397630888
N         6.54621711580051    5.50731110210274    4.17441388704928
C         2.98747485059599    5.75742164948630    7.79225628525828
C         3.38118337350319    5.69433372142639    9.12878677796839
H         3.60177048017328    4.73230180960557    9.57412312542662
C         3.49099231082849    6.85259091834364    9.87301492392094
H         3.78734455170056    6.80097007826327   10.90974810379516
C         3.22492967637020    8.08097255465352    9.28762716764423
H         3.30735472787609    8.98509479914732    9.87086996591821
C         2.86444763225474    8.14966979145948    7.95263278975244
H         2.66423007683972    9.10950057578947    7.49899018284114
C         2.76400563822392    6.99295301064925    7.20020289281041
H         2.50718415531967    7.03842540906522    6.15152321892123
C         2.20341818275186    2.99358934782893    7.83651588165276
C         1.31487272317614    3.29298050109300    8.86386123363667
H         1.08979605551985    4.32005466859114    9.11500346576175
C         0.71723440242171    2.26569615961171    9.57267548412102
H         0.02452069968056    2.49888290294769   10.36711656401350
C         1.00341372746138    0.94448839782772    9.26830826097916
H         0.53136789514500    0.14989815653090    9.82516964014701
C         1.90276958716038    0.64257663836408    8.25728740107810
H         2.13582577227625   -0.38600406771102    8.02775793711655
C         2.50761280976070    1.66407328256844    7.55142023205419
H         3.22079114579767    1.44638073538579    6.76458691570271
C         2.49780152287022    5.38088969311322    2.77599560108066
C         2.66271404501658    5.11927489144737    1.41726448968511
H         3.18231340723993    4.22313984090677    1.10848674088739
C         2.15210516782623    5.98727802031820    0.47040902670142
H         2.27579152985565    5.76840272778304   -0.57999402330823
C         1.47877479737644    7.13148747898866    0.86577744406236
H         1.07145604490992    7.80328809765279    0.12599734392617
C         1.33645549983178    7.41433202398546    2.21389887838754
H         0.82348866260572    8.31076455886020    2.52866132682413
C         1.85579281656139    6.55328437525159    3.16148060664702
H         1.75931227262450    6.79145513295917    4.20956666689010
C         2.79851069152178    2.62592483862726    3.34018008124047
C         1.75685019027003    2.36326177611905    2.45710692979877
H         1.15019316349318    3.16875545619754    2.06945709812562
C         1.48734215611309    1.06104604190264    2.07543801033213
H         0.67694956239252    0.86457365249658    1.38952943281706
C         2.24541241526701    0.01166413550705    2.56847723497375
H         2.03055340893096   -1.00048678930204    2.26189426549017
C         3.27753535633346    0.26341118526547    3.45733503399716
H         3.87036434772379   -0.54994874483932    3.84855710875896
C         3.55003003789356    1.56385937533824    3.83462966129856
H         4.36249255321354    1.77491100838076    4.52807849075888
C         4.74641127076103    7.58880990907244    3.88222745703884
C         4.13377691010692    8.72122604280706    4.41529586113192
H         4.02937344055194    8.81332085334997    5.48720158456949
C         3.67840243512101    9.72750710255838    3.58420714279061
H         3.21569777598265   10.60601385122801    4.00929388599155
C         3.81922697459646    9.61352843429926    2.21087639614009
H         3.47215656254971   10.40385696624253    1.56324217855152
C         4.40037447887343    8.47831876664248    1.67118825716377
H         4.50206359295052    8.37784870887223    0.60096527781350
C         4.84662193943241    7.46692295005409    2.50004770427628
H         5.27919203542906    6.57636175892449    2.07071214028686
C         6.08211779255580    7.16011209548597    6.33814803288095
C         6.24008223578116    6.45024259230907    7.52491168912493
H         5.83845968817059    5.44020971535974    7.58866232533872
C         6.89205796626301    7.00921867290503    8.60665842448945
H         7.00541719069806    6.44630972493098    9.52116675221143
C         7.39096955244283    8.29799847689004    8.51256609257418
H         7.89450914531256    8.74581698200088    9.35548012860298
C         7.24495156243945    9.01060627770191    7.33365296842920
H         7.64163757590505   10.01187446373261    7.25674574144155
C         6.59626989395526    8.44909004474691    6.24828451065956
H         6.49871942489135    9.01606293734330    5.33386136193872
C         8.38311253026353    3.47175323478436    4.98802900285638
C         8.65875243021478    3.67942460365244    6.33796145013170
H         7.87006621466223    4.04871033295602    6.98351289995192
C         9.91990053992151    3.42481417033423    6.84015790909120
H        10.13103775764601    3.59464337507899    7.88493099520492
C        10.90982612067006    2.94052611912616    5.99890650664196
H        11.89549100442125    2.73638677631107    6.38759113951014
C        10.63305032866958    2.70774080942363    4.66125676423511
H        11.40218166743483    2.32074533928138    4.01008618584397
C         9.37335416663154    2.96816928798721    4.15115100763127
H         9.16662009085266    2.77591285075812    3.10764341557581
C         6.45614310337545    2.92978065921100    2.92782723767088
C         6.78828449278687    1.57518552712775    2.93649952290130
H         7.27658498457635    1.15223518644162    3.80552409362489
C         6.49156979910955    0.78313277499819    1.84469310076791
H         6.75748669190407   -0.26308241270950    1.84965026213054
C         5.84887814791614    1.33066441489467    0.74487866365610
H         5.62095235650070    0.71197365406964   -0.10933381447839
C         5.48938674505898    2.66768104746692    0.74605347241967
H         4.98304614593206    3.08854545887093   -0.11048245332195
C         5.77473909060539    3.46242140361405    1.84208427250075
H         5.47679923303708    4.50094248599058    1.86213706065671
C         0.80019769066728    4.29912332555058    5.18950647139809
H         0.61235731448199    4.54984139766793    4.13804351088930
C         0.05287235380412    5.29051761329434    6.07350393591315
H         0.24915225012307    6.31914468051681    5.78391063019370
H         0.34538101397759    5.15882662933371    7.11303846694083
H        -1.01622385338718    5.11243339250644    5.98985545209073
C         0.25970712764092    2.88726998331644    5.43372363613373
H         0.95252364562376    2.12981363065385    5.07793648971976
H        -0.67812472118452    2.76924744216334    4.89590638946048
H         0.06715014571079    2.71586639577808    6.48861415793082
C         7.63158385832749    6.36122001526248    3.65997827016556
H         7.18071303561365    7.35334472881047    3.53276410882818
C         8.82025086796312    6.51033058398865    4.61384723124878
H         8.49539147785888    6.55144426176912    5.64974909098060
H         9.34386657007379    7.43565012578902    4.38512931501677
H         9.52188313933546    5.68927071229019    4.50069532478720
C         8.12473212797379    5.86668404313752    2.30534133849834
H         7.35809447946470    5.95073141175107    1.54006017454288
H         8.43362690605617    4.82602048414277    2.37712974078697
H         8.98058881490124    6.46079009124286    1.99514034732193

