58
CSD_code = DOXDOK | q = 0 | S = 0 | Stoichiometry = C20H34N2OW | MND = 8
C         2.49994085442130    3.61055303571453    3.27458336160350
H         1.91538577876867    3.93865671001041    4.15720985514613
H         2.14465373191932    2.61467103739134    2.97689299443504
C         2.19536133774643    4.57893723833280    2.16028802581651
H         1.21676555920145    4.48459091144932    1.71229699980271
C         3.06063983277240    5.49453575608221    1.75935430104206
H         2.82419718310887    6.16983895079479    0.94974694313156
C         4.40918726757861    5.62811925837992    2.38943145433917
H         4.65112477052418    6.68109417073719    2.54787505131221
H         5.16593934695362    5.21122314538106    1.71879514760394
C         4.43937900929167    4.87920463978463    3.73068441101521
H         5.46485512927212    4.82882248861937    4.10709463717758
H         3.82758364351613    5.44536782424511    4.45360685123108
C         5.29041914045391    0.79727325018625    2.23369498543984
C         5.74765558362462    1.57850801558767    0.99350985835137
C         4.56090147672773    2.34161333220263    0.39898264286592
H         4.11923729243007    2.98459082588093    1.15716384204326
H         3.79966393792743    1.64976446962660    0.04155107477307
H         4.87825100087814    2.95747120459249   -0.44041506567648
C         6.27335906451282    0.58947261052716   -0.05906362194728
H         6.54706304632864    1.11427771753942   -0.97246684322284
H         5.51551153184066   -0.15182636572872   -0.30658524582834
H         7.15358810437225    0.06924300140599    0.31216165723273
C         6.86705355310566    2.56202420039734    1.33715088374065
H         7.69730793535205    2.04292916930460    1.80997116717047
H         6.50055265191738    3.31886380888857    2.02849789438533
H         7.23426049747420    3.05235126834048    0.43699926626838
C         2.80161935515340    0.41554353935851    4.74181921795408
C         3.04960955627537    1.34405522494871    5.78396248794853
C         4.37272677201606    1.11172913516459    6.28160527229780
C         4.92383517085018    0.00200012667127    5.56493010292119
C         3.95560544320436   -0.42275159488919    4.61606705806099
C         1.48479969704106    0.13830774680902    4.07182779767893
H         1.60291697369552   -0.01025997774022    2.99724568731788
H         0.77688563983869    0.95077881399922    4.22711218454890
H         1.04284679486884   -0.77193963845849    4.48423705054420
C         2.06159972167847    2.26736688472671    6.43996579161270
H         1.78860265317467    1.86982423504539    7.42020295911648
H         1.14899198797020    2.36188491994088    5.85433601111819
H         2.48222919267871    3.26282508512511    6.59219357640400
C         4.98340158786345    1.73987507288744    7.50121938604903
H         4.54353238953271    2.71491183896266    7.70393697687747
H         6.05754826106703    1.86911379964667    7.37051282125638
H         4.82320664655871    1.10404182661111    8.37516155240949
C         6.21208563927975   -0.68992427421511    5.91189116769361
H         6.08958327622988   -1.28467711532473    6.81986853898874
H         7.00665169091014    0.03583531950313    6.08600293474502
H         6.52667107841017   -1.35360241587391    5.10909388400594
C         3.99367834202799   -1.71525470741508    3.85318606688785
H         3.68708670162263   -2.53153157223644    4.51175126418711
H         4.99445747132425   -1.93738956973592    3.48705362573581
H         3.31316692462735   -1.69849577419299    3.00412746309536
N         6.28900396653860    2.49846080161724    4.33584638362487
N         3.90988552425351    3.53751442298906    3.60525383299149
O         7.37540265478576    2.82635649971200    4.70728537214671
W         4.68055879207772    1.82196831487987    4.11647927190810
H         4.44438454083832    0.17365109390051    1.89865831232649
H         6.10478729166892    0.10211026190473    2.49255341836948

