56
CSD_code = DOXDUQ | q = 0 | S = 0 | Stoichiometry = C23H29NO2W | MND = 10
W         8.16867741293126    1.66200773728748    3.98236295090990
O         7.68168817146455    0.50811439027499    5.66615891359105
O        10.17115193980133   -0.33563108964720    3.14980053397836
N         9.41722168183341    0.47118220927130    3.58977036403958
C         7.40945166622449    1.17285930756304    6.83208280114680
H         7.29258142371511    0.44150836800058    7.65099973056414
H         6.46479137632357    1.75548535478311    6.77180029899847
C         8.75415739972553    2.93200241959355    5.88469790999710
C        12.53748008537975    2.17778757955215    0.45030958251114
H        12.27982793819645    1.38699522540433    1.13774525122851
C         6.07328687051368    2.78307586809506    3.67859697444091
C         9.76050782631536    3.29558381348925    3.72830548639468
C        11.93969251882430    3.43489727909417    0.58117727066038
C         6.56762478187612    0.79328814617921    2.60675881926926
C        13.43798665981675    1.92827622549036   -0.56578018568727
H        13.88885842676581    0.95005937470683   -0.65162186388713
C         9.85580826510697    2.75152540967658    5.06046689678822
C        10.99001196722679    3.74185565198773    1.63149249051103
C        12.26484243585305    4.41875385916125   -0.35756879949249
H        11.80617559502036    5.39528067384231   -0.27890407857338
C        13.76189649332990    2.91980547088915   -1.47855278448979
H        14.46722481093367    2.72006809596231   -2.27176634567950
C         6.92227114296906    3.07839668361459    2.56355155044996
C         7.93987465845391    1.72381775056399    0.57643228707889
H         7.25048540588239    1.92149560535642   -0.24674894871237
H         8.34148443044105    0.72029198321744    0.45249080988752
H         8.76867296501846    2.42766628389874    0.50696323045570
C        10.78795001922000    3.02181370734937    2.75038462907617
C         7.22837330245108    1.85000360327331    1.89368472305211
C         4.87037597560718    0.62647696814447    4.54680719821812
H         4.29813432005954    1.29406126004275    5.18720414768371
H         5.42007860735237   -0.07812503127271    5.17520267537947
H         4.17465717149472    0.05987340578632    3.92739899089522
C         6.45086031405281   -0.64196552936025    2.17598465366483
H         6.36369044930917   -1.29010816458276    3.04650909275189
H         7.32878261400946   -0.94821097433467    1.61029319934901
H         5.56924895319403   -0.78109684521967    1.54634455773008
C         5.34731279950187    3.80972673616661    4.50341809109853
H         4.40353023342765    4.07566333127388    4.02130997891091
H         5.93213076586883    4.72307502935173    4.60808536513252
H         5.12068767402398    3.43467930790014    5.50049773912084
C         5.82179534122585    1.38737650265586    3.67549667455077
C         8.56021903822902    2.16501519866507    7.15590075746581
H         8.29078230442546    2.79915274773853    8.00262407442798
H         9.45685076790526    1.58835307668886    7.39503468058249
C         7.14845736978204    4.44590644650006    1.98673798794475
H         8.05302604575994    4.47198480572639    1.38311092626650
H         7.21791865317167    5.21097147654388    2.75918973542250
H         6.30668719215440    4.70475278690052    1.34042904098904
C        13.16761008557420    4.16648113779361   -1.37117471581774
H        13.40885214535322    4.94350159567489   -2.08270908357098
H         9.31757995904061    4.29403200293762    3.65697524898798
H        11.40070120399525    2.14904920854996    2.94055788640649
H         8.11740031205994    3.80948913317819    5.74558346770292
H        10.41778764107217    4.65189946411466    1.48383090965356
H        10.71348439073331    2.15661793450290    5.37726622054623

