60
CSD_code = DOXDAW | q = 0 | S = 0 | Stoichiometry = C21H28NO6PSi2W | MND = 6
W         4.33032643253426    2.88380109528557    6.16818373969251
P         5.84840473233898    2.39825406637293    4.29690164227912
Si        5.58779010460394    1.80499238146983    1.17125418897539
Si        5.48647130613065   -0.55804201342624    3.50970738275222
N         6.13042845266782    3.87648044204230    3.53340824442232
C         7.73213447362175    2.08268291257680    4.36858210488082
C         7.36981071101849    4.11895125366765    3.37945129031479
C         5.21563056381815    1.28459021910802    2.99252138684702
C         4.72560337754327    3.46071453603012    0.78141589616266
C         4.79335892982902    0.50588528056652    0.02140552316631
C         7.45103079609075    1.86138251381306    0.75470734644582
C         3.93964334662568   -1.54040238456920    2.98532877449018
C         7.01656977487925   -1.32053235001420    2.65230379637680
C         5.71453152788462   -0.76918098339808    5.39129882936965
C         8.20946812245529    1.95504260249704    5.78057149909059
C         8.67402565656044    0.74428909474590    6.27986762588037
C         9.06619103064800    0.64234456631388    7.60238623238577
C         9.01308483837979    1.74881360542864    8.43340268816394
C         8.57460444590358    2.96371044660145    7.93561339018872
C         8.16909208784410    3.06515491104372    6.61717693428460
C         7.88838917843839    5.38151567659788    2.78841798397181
C         5.30755078931620    4.59619053425696    6.48695087631819
C         5.35766140222541    1.91290064665148    7.58366022721892
C         3.20235573880832    1.29012785939379    5.77316699700944
C         3.32691774941891    3.82932337718523    4.72527736806200
C         3.01035537097074    3.40202580021966    7.55442379498916
O         8.30377095552733    3.23462937978668    3.75109287269581
O         5.76305632246473    5.63549901207298    6.62485202820477
O         5.89400859835776    1.35567208908683    8.42577003054621
O         2.45165363974470    0.46637234008908    5.50771363261071
O         2.76993818514480    4.34533719027129    3.87247250215571
O         2.23960027523858    3.71345853486012    8.34084624641628
H         8.00677087560867    1.20485616357712    3.77252852835409
H         4.13395324016237    1.43936051002764    3.09579347727848
H         4.96406055774314    4.22383212077429    1.51415487730902
H         3.64590750030433    3.33792569094138    0.78063917010950
H         5.01189580822218    3.83113957833932   -0.19890065661006
H         4.90451287995166    0.81489886043958   -1.01232854411613
H         5.24623811257556   -0.47407238159127    0.11811623834773
H         3.73133893116038    0.40036649040836    0.21457754702780
H         7.58926691436441    2.23912743090682   -0.25411087219316
H         7.90119695853882    0.87452085942776    0.79331873944794
H         8.01482326596749    2.50491394376859    1.41962854226156
H         3.04357130862290   -1.15378401215507    3.46066781880476
H         4.03791706231950   -2.58134127014989    3.27582001545147
H         3.78166522418526   -1.51385926990396    1.91313990342928
H         7.95072676696570   -0.84886808895166    2.94083431254768
H         7.09184654698089   -2.37037345125894    2.91795227325250
H         6.94112882273897   -1.26638735365532    1.57209965903218
H         4.76114649718377   -0.88680444869885    5.89657542913888
H         6.21581225158715    0.08546580826539    5.83738647279195
H         6.30540046528097   -1.65217372454064    5.61803468094510
H         8.72579199768532   -0.11834685097752    5.63122722519752
H         9.41644760330505   -0.30468802823140    7.98483755470809
H         8.53861253885340    3.83287013099896    8.57523631907774
H         9.31667535454276    1.66493245958670    9.46579653605416
H         7.84727498031904    4.01783905131383    6.22061872247362
H         7.05796919865985    6.02453269243996    2.51680829405333
H         8.48860179703698    5.15586913600785    1.90915194377501
H         8.52698762210032    5.88606331627078    3.51126271568609

