31
CSD_code = DOXLUX | q = 0 | S = 0 | Stoichiometry = C13H13NO3W | MND = 8
W        -0.26311581250940    4.35333961874178    0.52591872237488
C         0.64280508195259    5.95211840978349    1.26975332281522
O         1.19653357270597    6.86968837177452    1.67549574505690
C        -1.40460982961030    4.43728954947300    2.14028432551575
O        -2.07474645485123    4.44429837290649    3.07070707840523
N         0.87515173152590    3.35936295231768    1.47663819790791
O         1.62098301787240    2.66325563799870    2.05822686950412
C        -1.79634071501844    3.45021281913966   -0.93330133994106
C        -1.84099320982536    4.86385236984518   -1.12341475071060
C        -0.56545477409109    5.25401998215270   -1.62561766780021
C         0.26684463326397    4.09745670095833   -1.74246156516407
C        -0.51117404133216    2.98662882218901   -1.31955939521853
C        -0.61245700081335    1.49198404603685   -1.43757900971708
C        -1.47210770445962    1.24899046811651   -2.70063297434942
C        -2.87166848239549    1.75477800172985   -2.29070465811488
C        -2.67427720751819    2.23430939985027   -0.83306856454715
C        -1.64621792419984    1.20311918589860   -0.33447749748025
C        -0.20920711013887    6.62870165538119   -2.11392159263256
H        -2.72183530200440    5.49622946912260   -1.09994644566923
H         1.22410362863099    4.07003896556274   -2.24790854795453
H         0.31425031083234    0.92138278549895   -1.40572417306330
H        -1.49225387974678    0.18637858705027   -2.94079501993083
H        -1.07464744208558    1.78538558191936   -3.56180256859850
H        -3.22241084785368    2.56360190348148   -2.93107234021555
H        -3.60612680262351    0.95061180432306   -2.32455901839037
H        -3.59553398613890    2.32696242389805   -0.26046018963641
H        -1.27193301588151    1.42552375003968    0.66925965334938
H        -2.02294168418748    0.18189029996340   -0.36900269912007
H         0.85561286715171    6.82525793285430   -1.99645810537515
H        -0.76709198012704    7.39332440688326   -1.57454064826910
H        -0.45343963652335    6.71610572511169   -3.17507514302855

