48
CSD_code = DOXLEI | q = 0 | S = 0 | Stoichiometry = C24H18N4OOs | MND = 5
Os        7.71600161981417    8.94231457816757    7.52635502022518
N         7.21320708931839    8.43962380049645    9.32716065889936
H         7.79996554535241    8.46075478698304   10.16008278339461
N         5.86186691108877    8.39439847470581    7.29004677695777
N         6.93899214352090   10.54009745520024    6.76412154883688
N         8.89445998008314   10.27708099420271    8.28426649134793
O         8.62861960677453    7.96422001237241    6.56471432155622
C         6.10471680260336    7.64780722679625    9.44882501429832
C         5.72850318731779    6.93495138215919   10.58376973041267
H         6.38543747850816    6.90848427690275   11.44124554278064
C         4.50777581271604    6.28912873917258   10.59907862553090
H         4.20600723309134    5.73420964247603   11.47420123178354
C         3.65955949970701    6.36536808002614    9.50226697853041
H         2.69920436053337    5.87362186114520    9.53524148952887
C         4.02166946413265    7.05847853067909    8.36123752091039
H         3.33696156753144    7.10507813189933    7.53198628680063
C         5.26829237451341    7.67586442526561    8.30134422378259
C         5.25142087682459    9.03266151886526    6.22630892081995
C         4.19605087280273    8.58099007736783    5.44407517439531
H         3.73560332476672    7.62804864335549    5.64348549542870
C         3.77961498245252    9.32824880777518    4.35638274859978
H         2.96059834460631    8.97122526283853    3.75086669712498
C         4.43186612201504   10.50170920310505    4.01517053008218
H         4.12384683777415   11.05407041304300    3.14053802819944
C         5.49902811934146   10.96120048437009    4.76588164725348
H         6.03861477576408   11.83567547470475    4.44333713020906
C         5.89684661189854   10.25901476819308    5.89931806730031
C         7.64018493838786   11.72128455511945    6.91869350182184
C         7.33077055225817   12.99199962015991    6.44349992446962
H         6.42284061049105   13.16842721287934    5.89205082858195
C         8.17942943912460   14.05092657310369    6.71699148183102
H         7.93579076112846   15.03253551429849    6.34033287019687
C         9.33513416949670   13.86143699961509    7.45824379494831
H        10.00560939977326   14.68859301462095    7.63398016122455
C         9.62574433147911   12.62203914257323    7.99793186201808
H        10.51781482546124   12.47542303115443    8.58757010805097
C         8.76365129822768   11.55329038272972    7.76866692214140
C         9.69088632343932   10.04019129106285    9.40362121104207
C         9.70238719407787   10.89589173884963   10.50970265338278
H         9.08629368072222   11.78266060469951   10.50042994522797
C        10.48277518732845   10.59719404916927   11.60990988336083
H        10.48445724074995   11.26548390974979   12.45836994774487
C        11.25183553748981    9.44432183822648   11.63557298814095
H        11.85915339744414    9.21779248845526   12.49868663435363
C        11.23320095578983    8.58150039204456   10.55055102424965
H        11.82773934025992    7.68029452743629   10.56698225526415
C        10.46091708484033    8.87272574921326    9.44316576997387
H        10.44205218718229    8.21156031256962    8.58553754699219

