69
CSD_code = DOXLOS | q = 0 | S = 0 | Stoichiometry = C36H26N6Os | MND = 6
Os       10.30697512185847    8.82105147830928    6.16010904845500
N         9.22182809059850    7.70212857717152    7.41712979740203
N         8.50461962787054    9.63694710573709    5.97531152275252
N        10.68255647149715   10.70213991533651    5.57485938691853
N        11.68103545301247    9.46466535739664    7.48458422023349
N        11.73553120323261    7.42102757683352    6.09947589631068
N        10.06852122918659    8.09289530892296    4.34595609182542
H         9.45828405969273    8.42807851631153    3.60182885610351
C         9.69848777871609    6.66509690127785    8.23510164498471
C         9.88135611795942    5.38935074937959    7.70332460231210
H         9.65508075394937    5.21935572009537    6.65984767635868
C        10.34241954486598    4.36405760542106    8.50638502112471
H        10.47483402897313    3.37647651123306    8.08910752889737
C        10.63236103452530    4.59794345068350    9.84052137636131
H        10.99476162942255    3.79482450064738   10.46441963963284
C        10.45555859625302    5.86405374629414   10.37243125596719
H        10.68065339398518    6.05023788530464   11.41205271164458
C         9.98651408332005    6.89349695970012    9.57924591804459
H         9.83720854281135    7.88288594174324    9.98617340901359
C         7.90196227387496    8.02119455014918    7.51073369060958
C         6.96319989705162    7.35996478168098    8.31472738916277
H         7.27451700873001    6.51413561274876    8.90960223412651
C         5.65865731816926    7.79837709993534    8.34719854479312
H         4.93944944656845    7.28706057641642    8.96923348114575
C         5.26295273266113    8.90973911157630    7.60616002106744
H         4.24560920587021    9.26433147289190    7.67585770447155
C         6.15781980326366    9.56762146951321    6.79004808178680
H         5.85129693995136   10.45347640386989    6.25723160728544
C         7.47852253808160    9.11644591307120    6.69895960964569
C         8.44054188219622   10.55874310041343    4.96054165304675
C         7.36411114228935   10.87408096706531    4.13083631614949
H         6.42915197162563   10.34481390124929    4.22594308514536
C         7.52146643491889   11.82575754904441    3.14118273119263
H         6.68719482954942   12.06475807166616    2.49860481870528
C         8.74308597227645   12.45526641444955    2.94295376094691
H         8.84948767644378   13.18303887224561    2.15277754372277
C         9.83747933756326   12.13187777465912    3.72556650954234
H        10.80312766647480   12.56858006837862    3.52170608255586
C         9.69989629296611   11.18776899405841    4.73489952854847
C        11.52003325650708   11.46571309413696    6.31969499866595
C        11.77030912793879   12.83923981442364    6.20262906598782
H        11.18382681632133   13.43998430812563    5.52561754380602
C        12.77458905376023   13.40856952852294    6.95083324517697
H        12.97913203740063   14.46436861735437    6.85512060711177
C        13.55124746758518   12.63206641402003    7.81187620877799
H        14.37051785511224   13.08861592976247    8.34677269264044
C        13.27056732518681   11.29930168911067    8.00847812345076
H        13.86808621717770   10.71137772582650    8.68664674870516
C        12.19497931736636   10.71370711223646    7.32828378885963
C        12.35610206223490    8.42357262077995    8.09645839530409
C        12.92990724055223    8.42435180445079    9.36134228371066
H        12.84032414370819    9.29427710554784    9.99398559258118
C        13.55906297004663    7.28420931059524    9.82548517786095
H        14.00132589046373    7.28118630822328   10.81020531225005
C        13.59578383188795    6.13573059214565    9.04734547095711
H        14.06419365854588    5.24320890885041    9.43419432852020
C        13.01244869784746    6.10470863644804    7.79649941005782
H        12.98480770823764    5.17905687230070    7.24584922184286
C        12.39770417740119    7.25006727193694    7.28861825278998
C        11.83686045618812    6.67853676813094    4.96249008428738
C        12.77615211338609    5.69698831553304    4.62712341755069
H        13.56955397846558    5.44629934199478    5.31167389129254
C        12.72410046861420    5.08569316938260    3.39229886007269
H        13.45416109995682    4.32997129886773    3.14406932279909
C        11.75521882427619    5.43844651054064    2.45461622006644
H        11.73110195081722    4.94096826192895    1.49671982838262
C        10.84973965052327    6.43679357794840    2.73189743441534
H        10.11628314956918    6.74240957254336    1.99874665190188
C        10.87956232066687    7.07873300544690    3.97659782218038

