66
CSD_code = DOXNIP | q = 0 | S = 0 | Stoichiometry = C18H42CuIP2S2 | MND = 3
I         8.90642584906584    0.60171809831066    2.58517310834219
Cu       10.37193442545148    1.75731193471725    4.29672861412424
P        11.79340780514790    4.10554720169935    2.74584622375787
P         9.93622516089735    0.17392259746548    6.98986093020940
S        10.75708945086474    4.03839977391693    4.41443366302801
S        11.54590025850615    0.70298002257377    5.99428081418707
C        13.30250220078648    2.99629952785704    2.72883777937476
H        13.96565377355389    3.36423795099238    1.93979546620459
C        12.93494062977848    1.54738241942693    2.43991069095648
H        13.81746464942073    0.91866180158620    2.54527818135616
H        12.53873124243864    1.41500886258327    1.43537311878159
H        12.19180049110717    1.19262555224899    3.16146420316885
C        13.99043416596892    3.12064886794241    4.08348714281772
H        13.34223690646719    2.73254829800777    4.86967619879434
H        14.22821481426236    4.15813658735920    4.31588370875334
H        14.91377235118381    2.54422388190924    4.09241052678757
C        10.77002396507121    3.66534435014636    1.25337257447623
H        10.56525985264161    2.59485451437993    1.37169329486968
C        11.48068606603004    3.89042701265999   -0.07466718622669
H        10.87079921451140    3.47443173120698   -0.87472503587909
H        12.45024193607918    3.39668169102808   -0.10055017334801
H        11.61655264251733    4.95162421935075   -0.27479253098119
C         9.43627580690445    4.40078477128446    1.31290831242768
H         9.55861973414900    5.47120578071790    1.15083866781164
H         8.96036712243040    4.24918540414373    2.28079326027253
H         8.76961944636009    4.00937932898593    0.54790118095037
C        12.37469984095209    5.86811081467397    2.46597413191711
H        11.57543073147800    6.30303530291217    1.85005998380340
C        13.69445519268576    5.97832928029648    1.70951573552261
H        13.87404716306088    7.02338325086783    1.45919487536441
H        13.68447191712247    5.40969465679281    0.78298869544007
H        14.52560088017533    5.63696746266260    2.32338843315399
C        12.43844219017613    6.65032741067910    3.77339667419042
H        13.22067746905608    6.26510139564733    4.42469264530724
H        11.49249153904575    6.58987308148407    4.30713119762420
H        12.65056509010074    7.69780030826407    3.56578786202255
C         8.87974971308225   -1.03323045117295    6.04371405855884
H         8.47341523142056   -0.44325385237838    5.21380528217891
C         9.75931083277367   -2.12590472401102    5.44719964885422
H        10.15250277093522   -2.79097984774104    6.21533089135435
H        10.59706081098437   -1.68800059161053    4.90614036438398
H         9.17889724923209   -2.71688250301529    4.74241762123743
C         7.72604986211399   -1.61427907985284    6.85032078754095
H         7.08566362878167   -2.18920763819795    6.18363738281350
H         7.12060586201173   -0.83320647371046    7.30622239450976
H         8.08656365608839   -2.28460775531603    7.62835286582425
C        10.46045773979046   -0.71991554688311    8.55489790674578
H        10.47958033808875   -1.77485036550471    8.24807390378764
C         9.48833367392060   -0.56278647825821    9.71953280389515
H         9.78882412880744   -1.23153503934665   10.52545980732734
H         8.46848487935090   -0.81417321253523    9.43917197188832
H         9.50648150448860    0.45352855821988   10.10812226644872
C        11.87213305697525   -0.32844180519142    8.97814761962036
H        11.90978807875264    0.70666517353852    9.31223260412847
H        12.57022327665790   -0.44399771977076    8.15186872886260
H        12.20049005486951   -0.96490867921608    9.79812908704684
C         8.83342163918434    1.60287000622763    7.48941605331784
H         8.19392275052460    1.24830496924252    8.30370105807368
C         7.96022171474124    2.07396452465630    6.33471600011335
H         7.41359532307107    2.96754806069094    6.63120288449886
H         7.23981872331290    1.31882088876717    6.02765394511156
H         8.58074923084965    2.34007577350097    5.47283731520955
C         9.72830037679278    2.73212304608525    7.98726229276580
H        10.34707631341298    3.10673631526071    7.17135452694345
H        10.38488368147903    2.39607114970849    8.78909057733331
H         9.12363192201951    3.55755815104716    8.35864438024975

