66
CSD_code = DOXPOX | q = 0 | S = 0 | Stoichiometry = C18H42CuIP2Se2 | MND = 3
I         9.12607454775853    0.53382142083832    2.60967316175582
Se       11.86023394815611    0.59582965964050    6.13552629940716
Se       10.96087449459775    4.15431676644813    4.45904124718137
Cu       10.58117005924411    1.70171415887647    4.31502483685269
P        10.08068379754309    0.04622030813645    7.14515946636853
P        12.04265856315670    4.16490926025336    2.63759425879883
C        10.49525017403150   -0.90274533934824    8.71040053339099
H        10.45026342592163   -1.95286201979811    8.39105975519649
C         9.49217166861013   -0.68741335979728    9.83919997640773
H         9.56354942889168    0.32273503663979   10.23771918442541
H         9.71632020162673   -1.38045164696079   10.64939537942652
H         8.46904167956139   -0.86900035148827    9.51856463442422
C        11.91203571450782   -0.61557885213238    9.19102687822055
H        12.14212844597707   -1.23761540484495   10.05435508331679
H        12.02687827238169    0.42769454589343    9.47937222401343
H        12.63934831489030   -0.83458101469363    8.41196096382330
C         9.02040995118974   -1.09072783895154    6.12157962071918
H         8.69762502598723   -0.46985607585107    5.27718507758359
C         9.86383367037522   -2.22967097591970    5.56247506043749
H         9.29352524824459   -2.76924805498667    4.80974491293929
H        10.16128211723606   -2.93185184212882    6.34043716084937
H        10.76200520779602   -1.84166904950379    5.08248654019606
C         7.79242765452621   -1.60963892928020    6.85868255383106
H         8.07138251765178   -2.30331744493707    7.64986196798115
H         7.15910236855653   -2.14413917730796    6.15278387936744
H         7.20626289667074   -0.79934561579908    7.28826225361286
C         9.02279603145928    1.51736671031417    7.61794404727390
H         8.33743465306510    1.18187996380326    8.40272464854978
C         8.21865446952524    2.03202143907018    6.43249488893106
H         8.88444653955974    2.27048110068755    5.59609700320662
H         7.70638453527579    2.95161594668178    6.71072685866268
H         7.47391128938731    1.31555983817475    6.09271500159900
C         9.93514079123705    2.61015816520750    8.16170803076992
H         9.34386790396914    3.43461011701926    8.55609285860186
H        10.56653301553637    3.00297538143186    7.36236578207038
H        10.58030267058954    2.23532857568315    8.95564278841744
C        13.55581578005344    3.06263032263637    2.67818502430119
H        14.21225804392578    3.38607987057133    1.86429418365719
C        13.18659520970447    1.59960881437580    2.47754466606333
H        12.44480277752393    1.28932204879839    3.22154466260397
H        14.06864342427006    0.97766353706943    2.62111940903877
H        12.78857921907204    1.40378162468757    1.48427337520336
C        14.25680561897056    3.25900015201013    4.01690139739571
H        15.20636409398018    2.72693625664997    4.02793387443934
H        13.63983472516875    2.86043570565618    4.82462499107068
H        14.44728467432365    4.31252655264327    4.21888877291406
C        10.99375674175248    3.61227221871393    1.20231436002642
H        10.79008742715519    2.55462336779355    1.40801779336234
C        11.69206128246938    3.73469247172884   -0.14590520931806
H        11.82771452326059    4.77772538201371   -0.42655358243412
H        11.07333177212250    3.26147000947260   -0.90634682712498
H        12.66092696377519    3.23876761553393   -0.14575515847551
C         9.66117599494714    4.35075010029955    1.21450805426158
H         8.98258137791044    3.88871999880188    0.50102454128881
H         9.77875033368944    5.40113986134573    0.95060827333995
H         9.19862116160599    4.28938644318175    2.19932658055520
C        12.59928511049588    5.90986561981415    2.22890175365960
H        11.80000605827286    6.28568527320502    1.57571247769461
C        12.65138821965393    6.79555916866823    3.46719466076428
H        12.89781784736125    7.81665436022680    3.18085429843157
H        13.40389890428318    6.44551643238762    4.17134317818372
H        11.69003153947272    6.80972553954624    3.97691171328380
C        13.92233548185389    5.96746764816042    1.47191617650657
H        14.75207002511869    5.67724451257330    2.11346249681351
H        14.09868755771492    6.99142961728013    1.14413203822732
H        13.91807681525891    5.33099407325470    0.59023720540378

