46
CSD_code = DOXQAJ | q = 0 | S = 0 | Stoichiometry = C16H23N5NiO | MND = 4
Ni        2.92741555760819    3.66195878921005    6.30829828793567
O         1.76130886195779    4.18681480545940    7.61190169422824
C         1.91492296394838    5.09827758565139    8.49105392074070
C         0.78484412287025    5.24149391007564    9.44508506457728
C        -0.03802678405071    4.13737340887182    9.66534016695021
H         0.16932429527308    3.21916088838609    9.13726121839327
C        -1.10372694421374    4.21868452877037   10.54034575613446
H        -1.73119786917896    3.35496318366342   10.70271623557624
C        -1.37010932176790    5.40650788469327   11.20121164181906
H        -2.20382687637333    5.47321246450511   11.88482819345352
C        -0.57036261866396    6.51431295796765   10.97313579169676
H        -0.78527006948384    7.44743879260224   11.47388787165769
C         0.49948903011797    6.43657171567020   10.10064925653337
H         1.09393487088576    7.31794318125332    9.91356471646271
C         3.02984913692803    5.91650713250936    8.60478147892945
H         3.05781312076682    6.64888410127818    9.39293571541879
C         4.14366915318163    5.83656545241994    7.75244604956700
C         5.23374334014840    6.85590795895450    7.96631459839718
H         6.14822209271036    6.37289069512814    8.31214468141120
H         4.93052594064932    7.58302371417003    8.71328086731569
H         5.45563661488862    7.38181957592472    7.03826748688122
N         4.24906506727695    4.92618839609532    6.81378973781190
C         5.42391465803554    4.90644944222381    5.96030873835594
H         6.33918939385305    5.13547160952200    6.52051074196905
H         5.32380496143009    5.66145965117332    5.16715871958293
C         5.56694109996799    3.50819376726832    5.36244424639670
H         6.30970003821390    3.50775884522258    4.55490388513623
H         5.92310156775508    2.84561904463169    6.15283068019172
N         4.26865113747181    2.99235752848130    4.90281846668750
C         4.32887300965248    1.52430134002512    4.78349672603147
H         5.21870117806772    1.22719746267178    4.21422435420239
H         3.43592409947848    1.20935204052294    4.24156202412645
C         4.33213497715022    0.84030017157800    6.14835263631080
H         4.00020704871541   -0.18895336101239    6.04799283269753
H         3.63149151351425    1.36627509130115    6.81145285594318
H         5.31684196244216    0.83585727612670    6.60986887747443
C         3.84262879474621    3.60860871684119    3.63041399944632
H         3.82183924229407    4.69200924891895    3.77218126109976
H         2.81699431290600    3.27896947951622    3.44481733215432
C         4.69144355417065    3.28407748578144    2.39986045454889
H         4.27811815685918    3.81783682678842    1.54791058750520
H         4.67152312136589    2.22232064307777    2.17123392454807
H         5.72576356632675    3.59861987353390    2.51705078103919
N         1.63200331439353    2.54591990383029    5.63065501186253
N         0.58138103772161    2.20356879487741    6.02870565902807
N        -0.43951543200998    1.77562799383800    6.27500477176834

