67
CSD_code = DOXRAJ | q = 0 | S = 0 | Stoichiometry = C24H36N4O2Zr | MND = 6
Zr        2.27279843912356    2.60189112203017    3.05429155993220
O         3.46923473505707    2.63321742921087    1.46288495195708
C         3.47223751718184    2.08082233028983    0.28724062023455
C         4.69920048062505    1.84217454495614   -0.37323757695005
H         5.60532307967257    2.12414771520591    0.14508151086838
C         4.75316141943619    1.26870984396978   -1.62009140036711
H         5.71031458282125    1.09699358614968   -2.09133729967980
C         3.58175462870035    0.90503172539871   -2.28105106898687
H         3.62730383456640    0.45338019826390   -3.26011590127671
C         2.37044947555195    1.12838274382295   -1.67177886409255
H         1.45647449188088    0.85047406665105   -2.18049917364622
C         2.27638072159507    1.71655023259117   -0.40166356473718
C         0.96904455040025    1.92446285643556    0.15732616267045
H         0.16055816631067    1.54742416655752   -0.47874254206021
N         0.71882326905465    2.51726086439342    1.26950968350583
C        -0.65705860949480    2.76995576404545    1.68095749680753
H        -0.76080269617684    2.33780941354701    2.68715939730841
C        -1.77308218542420    2.20017110287517    0.79848119478963
H        -2.73026200810948    2.42775356650708    1.26136703150354
H        -1.69240666303195    1.11873400726026    0.70835231373452
H        -1.76429554777736    2.64626097331368   -0.19467013307938
C        -0.80508168888185    4.29357201620766    1.79959358053374
H        -0.01422304957922    4.68615289996942    2.44108065763412
H        -1.77143765071370    4.54798165394824    2.22944953067648
H        -0.72766928220213    4.75153562735467    0.81360281845015
O         0.71480749958971    2.95345008736390    4.27822941653400
C         0.46394535971229    3.73104965500337    5.27611602999692
C        -0.44963528143806    3.33126295987631    6.28397027159248
H        -0.90722879016157    2.35714644863940    6.18251615490798
C        -0.74152228952194    4.13456764164033    7.35583229820742
H        -1.43856521139662    3.79375077335415    8.10817169711054
C        -0.14600305707509    5.39035033314725    7.48726640537214
H        -0.37932176476519    6.01520232859890    8.33546722741080
C         0.73460867944116    5.81828773497796    6.52559496631341
H         1.19826318668510    6.79176186742716    6.61511916403792
C         1.05644227717998    5.02423688564113    5.41296059054491
C         1.96332034594117    5.54700059442062    4.43847659432898
H         2.32357268024645    6.56420923717913    4.66426188519638
N         2.33939420805854    4.98127718088958    3.34935707312448
C         3.23095741714262    5.75361817454203    2.50116184329301
H         3.22590582965839    6.81463837689430    2.81858969859169
C         2.73449096016180    5.67171697879710    1.05647652833693
H         2.61559803744449    4.62517431887136    0.77276183546903
H         3.44850424134522    6.14669308090883    0.38711755643366
H         1.77519634941391    6.17830526364209    0.95665524113929
C         4.65783528200567    5.21704991835098    2.64500279457508
H         4.95743427298964    5.23645178445000    3.69222962160740
H         5.34556825298452    5.82994977306700    2.06494390349646
H         4.69783353985654    4.18613012777406    2.29520665049899
N         1.91525536050066    0.55584029273360    3.12131603710888
C         0.76100662089089   -0.00240342124267    3.78599939806376
H        -0.09499565922774   -0.15200932416661    3.09242124835120
H         0.44215694789919    0.65234843053842    4.60005140972110
H         0.99286429187667   -0.99648072928764    4.21480406309573
C         2.35971994352714   -0.35113562384824    2.09484862851080
H         2.46709541678414   -1.37743265035153    2.49438134946848
H         3.33104990812988   -0.04268435001236    1.69727671605625
H         1.64386834625618   -0.41901469253538    1.24302705120081
N         3.82399225794943    2.52896503837266    4.41561512506627
C         4.83272190292308    1.55714321612390    4.03719260066636
H         5.71885070745637    1.64015112116340    4.69556718503069
H         5.15824404156803    1.73628696396263    3.00815401824038
H         4.46053526299749    0.51398493307153    4.11651037851811
C         3.42253822922416    2.26192975953306    5.78148767826303
H         2.90685494920445    1.28254306337484    5.89188817491934
H         2.76081252982732    3.05222788762409    6.14877238134424
H         4.30678690613788    2.23830810853012    6.44681012252364

