97
CSD_code = DOXZIB | q = 1 | S = 0 | Stoichiometry = C27H63AgP3S3(1+) | MND = 3
Ag        2.36778475211128    9.99852212883441    5.39602829802358
P         3.41439749454814   11.22982811959689    8.63696430832676
P         0.08518183556454    7.16353524980594    5.15168609040818
P         3.32232256256051   11.71226375855052    2.42180498055154
S         3.09056360680577   12.04419846469531    6.86830667070666
S         0.74055948322495    8.35610154477279    6.58455232458006
S         3.18938999280673    9.81409657804632    2.96118881804521
C         1.90558844638531   10.36305969019960    9.30906494381827
H         1.82040689017333    9.48772943287036    8.65047980505475
C         0.64274398891648   11.19318957643673    9.11053944052630
H        -0.22715953794096   10.54977522847616    9.21957710200116
H         0.61793734136639   11.62032665719427    8.10838812031358
H         0.56658674637835   11.99752288941768    9.83659962669457
C         2.05989493831880    9.89405704433382   10.74927186562144
H         2.02117792076779   10.73290540395913   11.44012838620890
H         2.99096401279736    9.35198818878280   10.90050843649445
H         1.23697483441367    9.22513470369370   10.99377805247346
C         4.78412596675597    9.95579097984695    8.58491408105758
H         4.99987799495425    9.67262729504272    9.62012665177596
C         6.01245354753078   10.60231593355439    7.95283089685731
H         6.82277542239053    9.87960098286779    7.88209180457309
H         6.36700103135315   11.45179415313453    8.53265701226602
H         5.77282356939946   10.94813019000622    6.94701213439772
C         4.37477840581301    8.71354914352857    7.80624477265505
H         4.05106972173078    8.98928796980682    6.78456428962274
H         3.56599128426649    8.17475230779842    8.29513462250807
H         5.22584460793899    8.04165583246139    7.71409321572815
C         4.04112105432213   12.60964478614216    9.72105086167069
H         4.76216607552178   13.11193978967482    9.05999902616216
C         4.74963740814035   12.17468845260356   10.99751862411647
H         5.10973898100356   13.06182332738492   11.51603879592477
H         5.60834555292737   11.53997042243195   10.79285946497263
H         4.07787885671898   11.64702453991263   11.66839944058768
C         2.91310816823201   13.59469871731025   10.01388389984019
H         2.24071936406104   13.20480822019238   10.77430585189381
H         2.34474925037142   13.80871021854123    9.10940026184178
H         3.32853028026439   14.53053060082555   10.38225519601886
C         1.33629774982677    5.84058062370056    4.73663385656497
H         0.90327713193348    5.20353919359835    3.95953156189208
C         2.61346293135608    6.48267026552153    4.20931586659761
H         3.02723523280225    7.17583899256331    4.94811177762903
H         2.44892332222352    7.03163826104322    3.28462437365962
H         3.36036852396971    5.71590475530583    4.01579679189495
C         1.62465365786394    5.01067201644882    5.98348362108283
H         2.48319632035614    4.36629328464356    5.80649409032223
H         0.78263011944157    4.37677196820450    6.25208006231205
H         1.85757687346151    5.66345410970991    6.82535743108525
C        -1.39374705701503    6.26959203191670    5.84838608748702
H        -0.94001055468504    5.72820542620846    6.69071074661918
C        -2.42712203499630    7.23017181611167    6.42775281133917
H        -3.02775009304783    7.69083931144897    5.64841222352231
H        -1.94297888239610    8.01364390454959    7.00850608675757
H        -3.09743505554134    6.68437712874711    7.08836140142541
C        -2.02906754840250    5.27118791004212    4.88985337413319
H        -2.71496880690873    4.63147678319977    5.44230319986071
H        -1.28720942799054    4.63519099856766    4.41188737870393
H        -2.60327521028463    5.78173840174931    4.12054331804470
C        -0.24365866374328    8.10652677618101    3.57577125986011
H         0.71150660778417    8.63487407327959    3.42107576306123
C        -0.52905946932145    7.24120671787427    2.35618328636044
H        -1.46378602133948    6.69813905193322    2.46130502927828
H         0.27186668232567    6.53011733692309    2.17101207439143
H        -0.61211317790422    7.88357435381638    1.48101148818992
C        -1.33757507305124    9.14514892127181    3.80346022288733
H        -1.32621756217550    9.87955069468932    3.00079605385203
H        -1.18525331356306    9.66818148082236    4.74908799252404
H        -2.32026896497802    8.68005401714594    3.81374200331770
C         4.39681550400467   12.71777051477434    3.56602911703919
H         3.78191431919537   12.79067088704670    4.47389831474377
C         5.67133439031999   11.97049579137211    3.94030297832069
H         6.39424328308041   11.96852613180593    3.12928136856643
H         5.44731662440670   10.93715925895085    4.20769894795330
H         6.12860213070778   12.45361661592972    4.80124998134502
C         4.69123396817289   14.11963282156404    3.05067711337817
H         5.13239703800785   14.70626135121401    3.85404442172723
H         3.78703721097880   14.62717185953105    2.72214051166190
H         5.40312735711814   14.09418012135828    2.22909004223705
C         3.91495000844962   11.68265397714928    0.65553578412622
H         3.26777406894651   10.91170792306597    0.21258559295700
C         5.35298539826166   11.17593322231388    0.59573998243734
H         5.59661672574711   10.88072347168357   -0.42280027543765
H         5.48282034348799   10.30713242559479    1.24000292950534
H         6.05404290330944   11.95123691995133    0.89568960656594
C         3.74944210398634   12.98258857147650   -0.12119457498091
H         4.39320702820763   13.76594705980729    0.26766224509011
H         2.72279321523420   13.34001448400727   -0.11168539929918
H         4.03026490405732   12.80644897810700   -1.15838523856433
C         1.64781035459294   12.54572617606556    2.39484264792589
H         1.79375336911755   13.55175036968796    1.98883931130176
C         0.72909084583213   11.74295952794085    1.47867513355294
H         0.71151617326383   10.69862678494501    1.79137925126665
H         1.05430664813402   11.78284228202764    0.44157041035801
H        -0.28437956076588   12.13686278975850    1.52782291480718
C         1.05438071648501   12.65950267617803    3.79283164946095
H         0.04478054980703   13.06086555423122    3.73072509683966
H         1.63901252095844   13.31767414632730    4.43190893080159
H         0.99495976921653   11.66857817882305    4.27610179525943

