83
CSD_code = DOYBEZ | q = 0 | S = 0 | Stoichiometry = C40H32Cl2N8Pd | MND = 4
Pd        0.00015381563853    0.00000850930679    0.00020442479566
Cl       -1.29968795930025    1.05417064292683    1.58864815489129
C        -1.32665548988490    1.47354050980007   -2.31408925505545
H        -1.71312485812653    0.58785617427326   -2.78255896962788
C        -1.56610682785626    2.78763283819295   -2.62148199362892
H        -2.19910616881262    3.22741028641695   -3.36449525558769
C        -0.14775174150572    2.67701201223746   -0.96513107537039
C        -0.85733800404440    4.96727362207204   -1.59671960777714
H         0.04891773419051    5.24440585069331   -1.04929576072841
H        -0.84749048190700    5.44835495960016   -2.57868089571808
C        -2.07929269109559    5.39310817061264   -0.81280193374616
C        -2.46748144788397    4.68787779534168    0.32000699845196
H        -1.90886537816366    3.82324126210789    0.64719277987119
C        -3.58037026888640    5.08746007883757    1.03834862745557
H        -3.87295870168338    4.52911110268406    1.91431180715010
C        -4.30934038495209    6.19457642505323    0.63763219896989
H        -5.17569882526769    6.50678810653094    1.20150734934700
C        -3.92428610283038    6.90088000702220   -0.48863907531443
H        -4.48814861194021    7.76526809186150   -0.80696196877317
C        -2.81626011884229    6.49849753876182   -1.21403201924573
H        -2.51966872559467    7.05099015764476   -2.09468460727827
C         2.18267577841593    2.48692219200874    1.59563965510762
C         1.94199180226794    3.57919931423560    2.42051615190932
H         1.12222335334216    4.23841034788470    2.17805688101556
C         2.71850526248003    3.78870173174012    3.55704128604381
H         2.51174924885998    4.63925042209980    4.19031486797954
C         3.73546567745133    2.92345325820893    3.87793137064275
H         4.33674932734031    3.09039595551543    4.76044460315750
C         4.01290333228172    1.79748751748592    3.07377896569666
C         5.04702573806446    0.88958882886586    3.38653206037282
H         5.64474676133998    1.06927147676844    4.26902008643992
C         5.28945950828275   -0.19494765828465    2.58860066477343
H         6.08346104373146   -0.88459633745736    2.83625968834178
C         4.51025949502306   -0.42238344919956    1.44477027657174
H         4.70665917053446   -1.28686515771404    0.82798922714589
C         3.50335010125599    0.44360404437731    1.10786114065117
H         2.89526533061453    0.27171345822269    0.22476444132189
C         3.23069720787451    1.56485821499028    1.91408045177427
N        -0.45857747731029    1.41313589712578   -1.28057131438001
N        -0.82415056818744    3.53902985525461   -1.76707544331352
N         0.68663090421535    3.10681912226699    0.00050180991742
N         1.42281180227236    2.17640815141699    0.50532978823374
Cl        1.29968080941054   -1.05362515008391   -1.58950580178096
C         1.32672081994473   -1.47372818713728    2.31438847648516
H         1.71321573840161   -0.58807256771071    2.78288805130899
C         1.56614950760746   -2.78785091146208    2.62164037487562
H         2.19917329886691   -3.22769169263795    3.36458706314305
C         0.14776805536611   -2.67705794301157    0.96530015390508
C         0.85725088681026   -4.96737321835363    1.59667634883133
H        -0.04903366400702   -5.24435715656827    1.04921403058047
H         0.84734872776748   -5.44853635843746    2.57859704298919
C         2.07916327594909   -5.39323249578250    0.81271418038125
C         2.46734328097471   -4.68803654073888   -0.32011547702350
H         1.90878940552333   -3.82336503638944   -0.64730032625526
C         3.58014253889319   -5.08772484547876   -1.03853302696512
H         3.87272738965378   -4.52940401388941   -1.91450577967161
C         4.30904556164125   -6.19489878632570   -0.63785712762216
H         5.17537526029188   -6.50713202696486   -1.20175124158439
C         3.92400008761097   -6.90116796787641    0.48843377995524
H         4.48779498018124   -7.76559865139417    0.80673637448929
C         2.81605495010492   -6.49868601653069    1.21389623910884
H         2.51946236001219   -7.05116043231683    2.09455176569585
C        -2.18262023845501   -2.48684911847411   -1.59555121851898
C        -1.94186266341134   -3.57901822590850   -2.42056145325004
H        -1.12209080474528   -4.23824072035324   -2.17814078021484
C        -2.71830432142501   -3.78839302731250   -3.55715782267306
H        -2.51151149545759   -4.63887292630392   -4.19051343329491
C        -3.73523887142363   -2.92310515788407   -3.87802732541199
H        -4.33645032366018   -3.08993696206265   -4.76061111563997
C        -4.01271926140214   -1.79722090061965   -3.07377426190300
C        -5.04679241390749   -0.88926503505080   -3.38652103636907
H        -5.64443789477202   -1.06883721993371   -4.26908304257126
C        -5.28930935772142    0.19515323842406   -2.58845068274524
H        -6.08330148133742    0.88482487946977   -2.83607540383194
C        -4.51024136334583    0.42241320905918   -1.44449744542189
H        -4.70670580437603    1.28681749721895   -0.82762769008497
C        -3.50334807936818   -0.44360736270714   -1.10761417623636
H        -2.89530295499737   -0.27177922750959   -0.22448063143572
C        -3.23062156197625   -1.56474675087749   -1.91396975403036
N         0.45859492646244   -1.41320325405629    1.28090392293906
N         0.82417571261475   -3.53914936580721    1.76717045440167
N        -0.68669041684500   -3.10681967527190   -0.00028497013786
N        -1.42273616284815   -2.17638522274699   -0.50525381691183

