53
CSD_code = DOYFAY | q = 0 | S = 0 | Stoichiometry = C26H20Cl2N2O2Ti | MND = 6
Ti        9.87749908698118    3.29249958509026    3.64572220770552
Cl       11.28757659199351    4.19013799950229    2.18571187894818
O        10.76679308537420    1.78501258495483    3.81834576671707
C        10.92179607986030    0.73022049223435    4.54990317257738
C        11.92208667739319   -0.21709023635073    4.25191107769644
H        12.53012504360938   -0.04265993240666    3.37628987673557
C        12.11249968784578   -1.31657617223303    5.05184144626771
H        12.88707112198245   -2.02825320533564    4.80726599970936
C        11.31756143294879   -1.52612341345172    6.18045766989895
H        11.48140604061836   -2.39307407896146    6.80123887975498
C        10.32389825939195   -0.63029257168592    6.48777190499076
H         9.69500066164203   -0.78990629675677    7.35251923012645
C        10.09962396393563    0.50494713062676    5.69301162610365
C         9.04555433072938    1.41082382709952    6.01888581465660
H         8.44678856877719    1.15569523940418    6.90342063263354
N         8.73916754365169    2.45694559780040    5.33573920178472
C         7.69441570301501    3.28228623482325    5.77549192494741
C         7.71568288284798    3.83943446592297    7.05314354738896
H         8.53135062999424    3.60361247857663    7.72418196642173
C         6.72370458875267    4.72260970198795    7.44079059543939
H         6.75752896951585    5.16528824313530    8.42503848418379
C         5.69541157261866    5.03806413834203    6.57058681570502
H         4.92475942995416    5.72980652760149    6.87417108358707
C         5.65828300647965    4.46456391934695    5.30823759780509
H         4.85062782408382    4.70235170384201    4.63268960809484
C         6.65051732548406    3.59277393147398    4.90224503305803
H         6.63919679965642    3.14515150431148    3.91600181870148
Cl        8.46742291356462    2.39486050134834    2.18571129058840
O         8.98820502662399    4.79998646880544    3.81834639714970
C         8.83320286561869    5.85477901141198    4.54990324947509
C         7.83291425730560    6.80209133024511    4.25190964458706
H         7.22487670245141    6.62766185977429    3.37628771368366
C         7.64250191317102    7.90157755685950    5.05183977534072
H         6.86793243396626    8.61325619039568    4.80726282274382
C         8.43743930606843    8.11112375635210    6.18045676660730
H         8.27359534106541    8.97807474078411    6.80123769243072
C         9.43110048600921    7.21529116578779    6.48777251967680
H        10.05999710555567    7.37490384601603    7.35252075759476
C         9.65537419463115    6.08005128967085    5.69301245073305
C        10.70944295331446    5.17417361101805    6.01888707482549
H        11.30820817497035    5.42930153749424    6.90342244620726
N        11.01583002884244    4.12805219642430    5.33574001789622
C        12.06058297780277    3.30271245852896    5.77549221956419
C        12.03931673274214    2.74556314077623    7.05314333007443
H        11.22364839819438    2.98138285117136    7.72418183108681
C        13.03129689244652    1.86238976043582    7.44078987941991
H        12.99747331915489    1.41971044691246    8.42503744486964
C        14.05959077680360    1.54693825356627    6.57058606272504
H        14.83024448970308    0.85519746631802    6.87417000046122
C        14.09671818982989    2.12043932610496    5.30823722504335
H        14.90437397851073    1.88265381184262    4.63268915756487
C        13.10448199026203    2.99222743403628    4.90224513212360
H        13.11580164225322    3.43985058902491    3.91600223589084

