68
CSD_code = DOYGAZ | q = 0 | S = 0 | Stoichiometry = C31H36Ti | MND = 8
H         0.69081722583054    0.82792075686087    5.02428517707140
H         0.16752371728215    2.43913069230906    4.44260547397614
H        -0.27883736204583    4.23198481784884    5.91206346389777
H        -0.70391606464691    5.00919423830677    8.19548746153145
H        -0.13381929815096    3.57860286389376   10.12765689589269
H         0.84261409198983    1.34254093431563    9.73788316933434
H         1.27170551358706    0.55588394662430    7.46814917886925
H         3.44767588669893    1.27780326012874    6.72807602316383
H         4.95907935736772    1.58838932447892    5.83186089298233
H         6.20942317898167   -0.22930733972253    5.10305714887291
H         6.43968905774524   -2.61660292024752    4.60743864633883
H         4.48304466972183   -4.11752677209933    4.76481371679417
H         2.29442416003492   -3.19310278027270    5.43859409107059
H         2.04761990783771   -0.80235474704230    5.90136367933643
H         2.10357589942755    4.56723167359562    5.54968122959462
H         3.43377759270425    4.88481689111422    4.40336721200754
H         2.58302980556750    3.85262260093171    7.83166136940880
H         4.22082632184116    3.66003183543583    9.64305456252401
H         6.63824983585346    3.86192269662158    9.17008568551058
H         7.39555618853448    4.28389674315179    6.85836259447845
H         5.76482680881460    4.47566920515454    5.03674281357215
H         1.94500505756094   -0.97164302725088    2.96517945721531
H         3.68677903051551   -1.10915758379315    2.72306782398792
H         2.61871289681213   -0.86441821784314    1.33884647833633
H         6.16687849827301    1.63116908759340    3.24483100515404
H         5.94448397395916    1.31195106807357    1.52410716589730
H         5.55786650119272    0.05929938696669    2.70544561715190
H         4.37638523657474    5.09880912632289    2.28120683165926
H         5.14956605145629    4.02037323874410    1.12412244005960
H         5.66004285441309    3.99857184336549    2.80870846538608
H         2.17254067632344    5.25319942531713    2.10168263476509
H         0.69065694703708    4.42577898063037    2.59007104334748
H         1.24582198477375    4.33551713516777    0.91558931100243
H         0.08802569455030    0.55872309136905    2.52594996695804
H         0.43463201362275    1.09430814315047    0.88483338504613
H        -0.25171042030430    2.22941792505108    2.04457888608399
Ti        2.80894400972717    2.26075678577511    4.44346378003775
C         0.84953760215312    1.91246123860947    5.12454022082969
C         0.58058553902789    2.35151890491128    6.50223345412308
C        -0.00454809554460    3.60145107916025    6.75069417730671
C        -0.25454064527500    4.03899190713511    8.03651170218152
C         0.06007211346896    3.23684818839066    9.12203633442143
C         0.61120490323501    1.98510934734349    8.90019215783253
C         0.86148163530311    1.54696737115321    7.61414469733083
C         3.96078132275142    1.12756398343210    5.76447585011203
C         4.09937328497897   -0.30954163426001    5.48801691978687
C         5.33636749935742   -0.86788044788055    5.14077225350160
C         5.47117972171056   -2.21723523912269    4.87536184317343
C         4.37740805661902   -3.06216886434294    4.96719096305136
C         3.14998264043432   -2.53894572446384    5.34253191429061
C         3.01348284125157   -1.18902693058178    5.59882344616086
C         3.07427008947904    4.20748480524839    5.18540298230186
C         4.04568180910226    4.14275380659558    6.28479351318974
C         3.63907229998518    3.92967792661537    7.60909592145351
C         4.56199699983804    3.82637651418172    8.63108289978498
C         5.91819631280026    3.94221072968084    8.36941851417322
C         6.34065540669952    4.17552121550942    7.07035225432626
C         5.42039804165054    4.27769129837788    6.04559309333997
C         2.92013355964376    0.89286199853265    2.50655080913244
C         4.11879715492003    1.64881514479809    2.57286934069129
C         3.78065354537928    3.02341662064161    2.41726682178398
C         2.37332172360147    3.11702870198912    2.26700278049544
C         1.84203749762145    1.80112868386774    2.32063986756639
C         2.78923343113617   -0.59684258519045    2.38507342703610
C         5.52589969314127    1.12954521544045    2.51738009089480
C         4.79360066533430    4.10088331500594    2.15510235410767
C         1.57755520971489    4.35343530560768    1.95650135120898
C         0.44651063901068    1.40119379357574    1.93427326609615

