58
CSD_code = DOYJEG | q = 0 | S = 0 | Stoichiometry = C19H31BMoNO2PSi2 | MND = 9
Mo        9.43794016162971    0.49762278405246   13.57218225536060
C         8.76569336750047   -0.81900851051202   14.80507418037591
O         8.39999094642362   -1.56415785892908   15.60885167148325
C         9.88301489939248    0.89590183796279   15.40194819309778
O        10.17355517508098    1.06137343698035   16.50710069474385
P         7.01668905108466    0.77107824018236   13.27937129969717
B         7.67072585502098    2.52855146870153   13.40363288335433
N         6.24645296354491    0.24357969485327   11.86341875005725
Si        5.60482313151367    1.49836332027750   10.78832136078763
C         7.00807129766684    2.19827818382597    9.69242093392428
C         4.31991900361590    0.80307919362919    9.56371092939941
C         4.73022163289662    2.81244124538077   11.85523513688641
Si        6.08416742169888   -1.49483690264642   11.54879656330395
C         6.95328976653344   -1.87851880369537    9.88858364621746
C         4.24948282945462   -2.02628996919694   11.46056894384100
C         6.86003038901409   -2.53010950505276   12.93376950114425
C         6.25777603578708    0.67469768509345   15.93170529189247
C         5.38071149344824    0.47898609407261   16.98041628912877
C         4.08384695087813    0.05215365507100   16.73569506449635
C         3.66369076142677   -0.15954472259764   15.43379779074269
C         4.53856511648952    0.03626941958935   14.38000057420862
C         5.84834716992758    0.43577689321435   14.62041301339697
C         9.76749077297613    0.20626334995382   11.28264651540929
C        10.55488409326538    1.31005517574013   11.67652009694100
C        11.52092890392897    0.86622727786747   12.59902136038621
C        11.32648639895462   -0.52490319991176   12.79920919626253
C        10.24292737126297   -0.93000528862048   11.96818704399912
H         7.31516531298333    3.10512494445848   14.36979710326493
H         7.74965017732716    3.13241473077331   12.39720816081980
H         8.97503505201087    2.12822013516274   13.68364683978542
H         7.87904920873089    2.49076382917851   10.26865285894995
H         6.65947047654904    3.07793234785663    9.15949103292004
H         7.32832057943477    1.47714393833565    8.94460591690294
H         3.34218720955876    0.69075447840101   10.01778103271884
H         4.60220376220389   -0.15297190405984    9.14159427075936
H         4.20925099738529    1.50528954905777    8.74451672326038
H         4.94285804151951    3.81587009300861   11.50165996530372
H         5.06263188968583    2.75307131786461   12.88772316708885
H         3.65156192277985    2.68514280437718   11.84283544394698
H         8.02798459536322   -1.98102054334868   10.00175005196663
H         6.77137651011756   -1.11100278967065    9.14366693835964
H         6.58460113000807   -2.81764454846326    9.48909796077595
H         3.57471730551013   -1.21278445944441   11.22528985357033
H         3.92796811653325   -2.46160313488404   12.40201588318448
H         4.12219984588103   -2.78564051438561   10.69611664010121
H         7.93498026490023   -2.39975801098517   12.99893220538769
H         6.66649575394267   -3.58545854671338   12.76692792343667
H         6.44052304689169   -2.26893432347643   13.90076013490305
H         7.26910012325140    1.01819930439869   16.12169563046931
H         5.70865773006881    0.65715218566591   17.99381087747559
H         3.40295337260387   -0.10789242156038   17.55845691550532
H         2.64951973782046   -0.47677555548668   15.23725158771569
H         4.21146601107941   -0.11488205490230   13.36341046047474
H         9.03788767549124    0.20651996476478   10.48450182398078
H        10.51726320381246    2.30029451971572   11.23682343857133
H        12.34929765134381    1.44904652993235   12.98018475007306
H        12.01587159709095   -1.19187212788966   13.30491459845054
H         9.96752873769828   -1.95752393296705   11.76408062933881

