52
CSD_code = DOYMIN | q = 1 | S = 0 | Stoichiometry = C13H29CoN5O4(1+) | MND = 6
Co        2.90928550278485    2.69822406110300    0.48028156583072
O         4.67564051189079    3.01390766493534    0.14039179738637
O         6.68231331177530    2.19733981774368   -0.20504039173496
O         5.68368178978055   -0.02906648467065   -2.32446356441296
O         3.48536710697341    0.39051393181399   -2.10984581186295
N         0.95970360777145    2.23562318458614    0.83914164842012
N         2.35032022512222    2.73948367005511   -1.45771489998054
N         2.68610113453469    4.73167832314774    0.66414395825124
N         3.43001129041259    2.72050825949941    2.44653526563462
N         3.44686375525403    0.77248626350147    0.33917483381622
C         0.42622107168291    1.63774440974103   -0.40311239222515
C         0.89952899556894    2.50291413724515   -1.56080100418216
C         2.75256877371593    3.83690919220200   -2.36372422152927
C         2.48164559890852    5.21644491175353   -1.75063103217319
C         3.23209756611950    5.53519432932550   -0.45708048811239
C         3.33275829474749    5.07556765308346    1.94400557691844
C         3.00854248988512    4.01817491118631    2.98989199018348
C         4.82607077451991    0.66132461502441   -0.13725474873190
C         5.49792022802872    2.02134860116929   -0.08391044715902
C         4.68018125275041    0.28410498218966   -1.75819185686037
C         4.19010006480412    3.67409902157424   -2.84197766153319
C         3.12030101478442    7.03567853581418   -0.17796475790934
C         5.64759305425002   -0.39645078439867    0.57167829578688
H         0.80014510998992    1.58550604626772    1.60790292349019
H         0.39203055671001    3.05605609665406    1.05293617409969
H         2.81832145273791    1.88125493720873   -1.84634585197040
H         1.70015729649010    4.99384077202685    0.74104474117163
H         3.16183107756194    1.97148597049927    3.08367759033249
H         4.45305209241669    2.71724819020504    2.40954129139229
H         3.30587930381986    0.14014605918375    1.12786489757972
H         2.91921343744911    0.39946615673367   -0.48562675887683
H         0.81139032361641    0.62336540021924   -0.51064587686261
H        -0.66691834783142    1.58535232774436   -0.38988119899499
H         0.37353131204448    3.46119168414937   -1.52934259644740
H         0.66257186390322    2.01336576234438   -2.51018047593012
H         2.11242389218040    3.76161647734626   -3.25520480734589
H         1.40959530686330    5.35091094611501   -1.58059916983581
H         2.77471008589451    5.95260336365878   -2.49821286613677
H         4.28213804936202    5.25930112874350   -0.56285624552153
H         3.01572780314868    6.05747665383027    2.30421179310204
H         4.41104812800366    5.08679120786078    1.77120670515569
H         3.52447056722906    4.25441139396237    3.92643844408318
H         1.93343177237835    3.99032800213823    3.19089390827425
H         4.42001434035764    4.44094579515904   -3.57590071809857
H         4.31915634985436    2.70635461542844   -3.31965692593032
H         4.90642590802310    3.74847252718692   -2.03292867913166
H         2.09174506860545    7.31869836009267    0.04127736721261
H         3.43890227976503    7.58961608570717   -1.05552612291601
H         3.75726088762236    7.34661931276225    0.64385021369238
H         5.72522007628648   -0.19898594696380    1.64173725453167
H         6.64833569520837   -0.38038050609291    0.14652759772832
H         5.22237089424373   -1.38631202779663    0.41476573833195

