96
CSD_code = DOYNIO | q = 1 | S = 0 | Stoichiometry = C34H51BN7P2Ru(1+) | MND = 6
Ru        3.65785159554583    2.41437817870762    2.58931797215971
P         4.57979751070764    0.19685002753781    2.94742583818328
P         3.88425416640593    3.37976516396062    4.78339367069873
N         5.53157191993257    3.03902241377118    2.00616981406781
N         2.02738987992782    1.99961038476857    0.17160055233601
N         3.23772082901329    1.77249174779257    0.68182129302299
N         0.73911591574532    2.12278393873085    2.26296602742123
N         1.74429621232514    1.78548835738188    3.07509296841430
N         1.70041923976822    4.16219805538539    1.25627454839600
N         2.83429219796742    4.18030133272554    1.95762811909236
C         6.17811653378067    3.79614294028388    1.18467133603071
C         7.64972820823764    3.77418502658450    1.13162963381205
C         8.30055298123980    4.07687716443135   -0.06710538060979
C         9.67835027651661    4.02365979474731   -0.15067449726592
C        10.43298986080189    3.68204607951473    0.96028091006037
C         9.80006124328106    3.39060671771513    2.15803810248332
C         8.42203733124033    3.42907658320587    2.24391962311345
C         5.52907254381619    4.77424158096563    0.28936395670021
C         4.59607138008951    4.41919854753035   -0.67779242885965
C         4.01642725977611    5.38629542710609   -1.47924553308660
C         4.36496668678187    6.71729853134068   -1.33000276631814
C         1.95200105911242    1.50140970227287   -1.07004774952894
C         3.16876692156958    0.93180732544528   -1.38026874961845
C         3.94789063626627    1.13558921034527   -0.24227195881256
C         5.31558290632554    7.07735731568031   -0.38824246220254
C         5.90221679182996    6.11438105921934    0.40929200055427
C         4.69952293179741   -0.65707088587867    4.59503120082741
C         5.79157403365472   -0.08648856255089    5.49396578917978
C         6.34685846445249   -0.00001889610443    2.38182711772689
C         6.89041010880119   -1.41936249707288    2.25412720661055
C         3.78890415364015   -1.18266203783529    1.98625844861375
C        -0.42157611291439    1.66836872452409    2.75573495847682
C        -0.15769836353099    1.00641587305825    3.93519898178199
C         1.22290784616547    1.10595425872965    4.08868087952297
C         2.27500562162420   -1.27908495608727    2.11207910975427
C         2.82094193951857    4.85073521830736    5.17208318407193
C         1.33281793628181    4.63418111740115    4.92708100258926
C         3.41609561138514    2.35590963123834    6.27042732325967
C         3.98277075367315    2.74297456107378    7.63214673628798
C         5.53494061893270    4.05344637011724    5.31426865106341
C         6.04621529852180    5.25302329048894    4.52529416988259
C         1.36715262308389    5.40924397634329    0.89438211652650
C         2.32694482522074    6.26833134574637    1.38308392581961
C         3.23186351677822    5.44112262963508    2.04446714712889
B         0.99613145724092    2.84158316274728    0.93544622283285
H         6.18805022212804    2.49791171188708    2.57321031921664
H         7.71693545406622    4.33671014832183   -0.93756510806579
H        10.16604279470743    4.25214145999645   -1.08568272260121
H        11.50925288251062    3.64803748979507    0.89551813833145
H        10.38381403266216    3.13653828882172    3.02991992184974
H         7.95127735216617    3.22863804568794    3.19697323279775
H         4.35466936738219    3.38096586208513   -0.83116050421912
H         3.29490893276289    5.09454448676595   -2.22751483033472
H         3.90931402188919    7.46991175410236   -1.95454471229159
H         1.05492252014306    1.58107874340729   -1.64837912443517
H         3.45586546778237    0.44658764768887   -2.28950916241977
H         4.97750277743863    0.87302667694147   -0.08579675602968
H         5.60595744224321    8.11108973510768   -0.27933136105891
H         6.64525302825956    6.39845248264183    1.14124044666044
H         3.72226377414674   -0.57410605722266    5.07563291166567
H         4.87502315164231   -1.72130126472012    4.42299324402549
H         5.62642549035687   -0.38036825355851    6.52847260451413
H         6.77037057497620   -0.45549005915332    5.19869495078114
H         5.80520106582866    1.00225064449499    5.44261430818344
H         6.44903610321797    0.50462598272671    1.41725779472893
H         6.96265421939880    0.55100357087780    3.10005883042823
H         6.78280546611119   -1.97992572882162    3.17846300178246
H         6.39795355265202   -1.96538852213587    1.45485903735817
H         7.95172122692532   -1.37120938405656    2.01654416221284
H         4.05389233218143   -1.05069656432847    0.93497062501943
H         4.23825991742797   -2.11613572681208    2.33449558780086
H        -1.34719802206433    1.83819315638557    2.24591918971634
H        -0.85436029725958    0.52169290217675    4.58624182913671
H         1.83589340114347    0.70026360395751    4.86763268880554
H         1.96933208860527   -1.38304596596203    3.15051970581543
H         1.79014695662911   -0.40099979807397    1.69261308693103
H         1.91810528567936   -2.14969475528443    1.56508257944844
H         2.99205410597456    5.09739966309800    6.22441974424109
H         3.15768427978521    5.69556961791925    4.57164733922343
H         0.78780780620111    5.54967992982027    5.14790059557227
H         1.14065838043570    4.37203396957960    3.88943145086423
H         0.92793955828214    3.84565015501181    5.55754174869297
H         2.32567974312856    2.41356732692855    6.31391611625758
H         3.67924878011532    1.32097458705823    6.06607508696974
H         5.05253621447132    2.55909745643693    7.68993493897616
H         3.78800982631352    3.78410924987153    7.87753803722150
H         3.50209185850132    2.13326388204443    8.39495137479406
H         5.45963358235430    4.33603831393205    6.36535675734042
H         6.25369529035622    3.23085522252048    5.23890763919546
H         7.05739609526698    5.49744459059714    4.84714626334079
H         6.07054708225686    5.04878611281897    3.45849378204095
H         5.42487016076639    6.12741892380559    4.70191976012331
H         0.48202665909526    5.60492651296938    0.32522579407227
H         2.37193440536383    7.33175962500888    1.27885280598519
H         4.13432672154226    5.71439298667106    2.55319905345679
H         0.00574151371400    2.99956462914308    0.31747878366911

