60
CSD_code = DOYQEO | q = 0 | S = 0 | Stoichiometry = C28H28Cl2OZr | MND = 8
Zr        1.98868829868271    4.69963188385816    4.95330799938973
Cl        1.24517991270957    5.65165925262687    6.93653459498630
Cl       -0.14687167534935    4.87082088040383    4.05975756327741
O         2.95939577746758    5.94585521787079    4.00098605939882
C         3.79257597153335    3.09240600232834    4.81100126992206
C         2.75491990206929    2.64157683954532    3.93960944498355
C         1.61689554560655    2.31536897173464    4.73487987577043
C         1.93806789913045    2.58350671617305    6.09263738421255
C         3.28061512403188    3.06645424841244    6.14531652609981
C         5.21802717056385    3.34707373566817    4.40041830168513
C         2.85335368850641    2.42322336912746    2.45538863808385
C         0.35084408650325    1.67991701002676    4.23206307117517
C         1.02880236585545    2.34237260889032    7.26742408184956
C         4.01956920002074    3.40514528108822    7.41227725864745
C         4.04596570077887    6.34615336901912    3.35480744714298
C         5.17382854122902    6.79185217462165    4.07726153010494
C         6.29179485766680    7.23927819332983    3.38315205857536
C         6.31745889581128    7.23902708268979    2.00040995937738
C         5.23507351867244    6.75076890121471    1.29152130614947
C         4.09718413989501    6.29118102223532    1.94504730774966
C         5.16435449065920    6.73746262843527    5.54900429564773
C         4.03803063529647    7.10685195315289    6.28783742972475
C         4.06337587056403    7.05892893306351    7.67354457392981
C         5.19974696457468    6.63199672333813    8.33950845085494
C         6.32222840334506    6.26293201124203    7.61555015225537
C         6.30526789696606    6.31498424993696    6.23459282110666
C         2.97200614707209    5.70759562964324    1.19592143216962
C         1.64638938791436    5.94305766364817    1.56504586004397
C         0.60789878012311    5.35378464548196    0.86231059302018
C         0.87311292163267    4.52637146977941   -0.21607446394149
C         2.18477598041060    4.29845591959503   -0.60024958296514
C         3.22402515179091    4.88016397016430    0.10047169846923
H         5.74294017473074    3.93865042926540    5.14818597790521
H         5.74910507282314    2.39860062405711    4.28623996642995
H         5.27177821639661    3.87709531567906    3.44829177214163
H         1.97981719960818    2.83452366086949    1.94353819804285
H         3.74455122890060    2.89709868967025    2.04824979910160
H         2.90418923637375    1.35576236302733    2.22901503295425
H         0.45109225822745    0.59155230889850    4.22694614139466
H        -0.49522502332377    1.93951248574887    4.86814177073589
H         0.12805455254219    2.00692351559420    3.21632074962673
H         0.02278926761946    2.71765962250958    7.06183848951413
H         0.95406292663198    1.27372929065900    7.48221577533360
H         1.40473131346663    2.84618190483986    8.15640557945845
H         5.00367721383782    3.81588876900385    7.19505938083638
H         3.46410698757438    4.14159769939647    7.99996929832255
H         4.15321070211126    2.51119606601382    8.02506341798197
H         7.13926492900070    7.61384355667443    3.93791594331874
H         7.18335808270735    7.61263974150191    1.47557424867091
H         5.25756965368309    6.74457463369354    0.21183133271909
H         3.16535220455960    7.51553919192076    5.78451249335725
H         3.19134607087671    7.36518824345336    8.23116692312351
H         5.21512381540272    6.59472009129429    9.41833192025678
H         7.21476243974558    5.93542634004664    8.12918975552076
H         7.18365365791387    6.02405670951277    5.67557796960955
H         1.41852599541639    6.63565697228945    2.36881702705701
H        -0.41121927424791    5.54635575337079    1.16128220318822
H         0.06140638365464    4.06675802463342   -0.76018569088898
H         2.39867936743068    3.66055304570463   -1.44561219531934
H         4.24491379458522    4.68145639233762   -0.19324821932181

