60
CSD_code = DOYQOY | q = 0 | S = 0 | Stoichiometry = C28H28Cl2HfO | MND = 8
Hf        1.57870722735993    2.92878299216014   13.17384376338707
Cl        3.63161088304866    2.84227046510395   14.17600322368684
Cl        2.40053228220813    2.00204589608637   11.25302921542359
O         0.79273736274958    1.53038878079585   14.07069121180809
C        -0.26051813090942    4.43030549056705   13.37301522306471
C         0.19230436440534    4.46139760723299   12.01532971799615
C         1.51010714779935    5.01110504151226   12.00003417669092
C         1.87796947670163    5.31624406458544   13.33645126253735
C         0.79760583636506    4.94309118361715   14.18898321721067
C        -1.67504560303335    4.21123474836202   13.83282085375298
C        -0.59667551375085    4.13618169313427   10.77810434606627
C         2.29234362537603    5.34515541750194   10.76125568883238
C         3.11013731168159    6.05098834414507   13.78023149189520
C         0.74209047643541    5.22856988536468   15.66226268271932
C        -0.37039122044372    1.29547894962364   14.68042144327305
C        -0.46755094860362    1.42371586979458   16.08223112725718
C        -1.67305780459953    1.12362651509241   16.70759549677244
C        -2.77136010455667    0.70944976046625   15.97727667948942
C        -2.68786523639708    0.62051469206319   14.60076301531721
C        -1.50497636869101    0.91858274902412   13.93062329755291
C         0.68606647233579    1.88942470862371   16.87093569185006
C         1.98373077978251    1.46108477634739   16.59344819069246
C         3.05033181535793    1.91781782906560   17.34866583768015
C         2.84208146848347    2.80787934501510   18.38788891982608
C         1.55557743695728    3.22994379050361   18.68144959196471
C         0.48802038951613    2.77439099850361   17.93180962154079
C        -1.44929761474297    0.86648527760034   12.45952886780217
C        -0.32140705380570    0.40193198776137   11.78035843414436
C        -0.30886956301580    0.34245235359203   10.39560400268491
C        -1.41227015197558    0.74880641089659    9.66594517070518
C        -2.54044771406845    1.20502774099532   10.32842997562389
C        -2.55818072697811    1.26534034757302   11.70864692594858
H        -2.22245507928788    3.57703976599392   13.14035255740658
H        -1.71397461768625    3.74955567487030   14.81847787071745
H        -2.19326770653899    5.17154584504778   13.89160146287738
H        -1.58452645884030    3.75808341725228   11.02756975102091
H        -0.71888721761604    5.03145041583467   10.16623406524369
H        -0.08571905648266    3.38340277492634   10.17374084799531
H         3.36200603485318    5.35453423082316   10.96500486308846
H         2.10081447224668    4.61917902035105    9.97265174928529
H         2.01000198906861    6.33354118850066   10.39133474799136
H         2.91798968808568    7.12619288561668   13.79871807637979
H         3.40917128658876    5.74147770591216   14.77996203383832
H         3.94332770751528    5.86779165383864   13.10459128281659
H        -0.14548874714145    4.79076885843825   16.11205923671732
H         1.62021516042046    4.82884244816077   16.17287192651298
H         0.71467779451191    6.30614703503652   15.83625540420414
H        -1.73587229265037    1.18974202870462   17.78352506622586
H        -3.69164345096239    0.45576120293121   16.48095171096573
H        -3.54384791921271    0.28754784587071   14.03334174758985
H         2.15840296657704    0.73490817460361   15.81181638519617
H         4.04818787138542    1.57807060009582   17.11812704822338
H         3.67675316921044    3.16637382857190   18.97182429748199
H         1.38344926749973    3.91857099466412   19.49614758011418
H        -0.51055496806252    3.11958959833090   18.16015663643380
H         0.52312702754040    0.01027551755157   12.33366341140974
H         0.56947697555271   -0.02768339006627    9.88986476488559
H        -1.39920366718027    0.70118100939182    8.58745618423741
H        -3.41004317103241    1.51559825189418    9.76720979882842
H        -3.44255765937958    1.62899570412784   12.21321112712250

