85
CSD_code = DOYRIS | q = 0 | S = 0 | Stoichiometry = C24H54O2P4Ru | MND = 6
Ru       13.71415401151866   -2.82396455361850   -8.52958030512720
P        13.37564018096791   -0.75997980857204   -7.58662751515545
P        11.69096601687084   -3.32807725102521   -7.50371829166615
P        14.19639281958126   -4.94180679449487   -9.44894511167517
P        15.83572555741571   -2.36924053795324   -9.30616903792393
O        14.48184232049399   -3.25910681500047   -6.43091048187595
O        15.56801203936773   -4.98692033534836   -7.27830936342431
C        13.30013840478903   -1.77636845791671  -11.45235283559448
C        12.81605643744115   -2.12689341977952  -10.27114022634143
C        15.24787328380405   -4.24303506716010   -6.33957163421705
C        15.84481252054758   -4.51768787893185   -4.95416663267140
C        14.35318856332623    0.56932919289166   -5.16173548340070
C        14.71771418690343   -0.17493425472143   -6.44176733922042
C        12.70019361963227    2.03892364102891   -7.89926587900751
C        13.01847851137530    0.73474511403321   -8.61857271231594
C        11.85520702097796   -0.79648544220561   -6.52144822110745
C        11.66477552658383   -2.22095484700976   -6.02230010290418
C        11.22171824497842   -4.95048872088728   -6.74204428493911
C        12.25559956215585   -5.52684623016713   -5.78776846139319
C        10.03848696868831   -2.92459423275702   -8.27367136229724
C         8.83665401047339   -2.70823436892256   -7.36077549955426
C        11.82328938881678   -5.31223063318177  -10.89673672008011
C        13.32238921908428   -5.14741845334198  -11.08285722864545
C        14.20384193551502   -7.82639473037484   -9.74292574762575
C        13.93505075198802   -6.66384026968897   -8.79433067510856
C        15.92984588325719   -5.00901431117189  -10.10146198468909
C        16.35390907769769   -3.62292563781368  -10.56517732781893
C        16.22268961605392   -0.72967558871993  -10.09716194237274
C        17.16071066214265   -0.70991264777336  -11.29828185378246
C        17.24207510582837   -2.52574698859060   -8.10029110525585
C        18.63428918399786   -2.08874005781847   -8.53920351868625
H        12.67711489323628   -1.36707463745892  -12.24267344735490
H        14.34130339778659   -1.88459926378301  -11.72164357187394
H        11.73402054657290   -1.95642367474533  -10.18553816903446
H        16.87147492787279   -4.15629090046685   -4.93812584232842
H        15.27271071811575   -4.00234338557819   -4.18754925249282
H        15.85331622279406   -5.58730320024918   -4.76317461774909
H        13.83203373397494   -0.08840852071001   -4.47006726521822
H        15.26775786847717    0.90484139986133   -4.67307345348427
H        13.73357641635859    1.44241242563725   -5.34909047131532
H        15.25547405324388   -1.08547258995973   -6.16700768244454
H        15.38363724575078    0.43327123164878   -7.06528104103735
H        11.87502937869167    1.91855734284225   -7.20152589934989
H        13.56795231526200    2.40741786687237   -7.35844886990026
H        12.41607608712592    2.79671350495521   -8.62851436236128
H        13.88526690908103    0.87543735323402   -9.26933469383723
H        12.18409848667820    0.44260204207304   -9.26347101091787
H        11.92221383390713   -0.08368607577299   -5.69714981696739
H        11.01694668969189   -0.50743554973094   -7.16553060700877
H        10.74468805082883   -2.34562617242544   -5.44385095458649
H        12.51974182199433   -2.50937459365740   -5.40533466496658
H        10.27088800980135   -4.81521678977791   -6.21727092426758
H        11.05091744672385   -5.64001089260803   -7.57624965497956
H        13.21784694844446   -5.61598173653165   -6.28250602827692
H        12.37635779768329   -4.88723423759597   -4.91638193821165
H        11.94802748725139   -6.51577776038850   -5.44827978445922
H        10.18135907521492   -2.02819551449416   -8.88242409774611
H         9.82699025982208   -3.74739479922859   -8.96338518731237
H         7.94573689737012   -2.57287768546749   -7.97299150707254
H         8.66036645899996   -3.55872820622661   -6.70709407497041
H         8.95470256652537   -1.81817579012993   -6.74756132163093
H        11.29878176275593   -5.22583451798380  -11.84729770764085
H        11.57793944494204   -6.27734832715596  -10.45729388229073
H        11.46979264414351   -4.52423085367414  -10.23137214547072
H        13.50732553850765   -4.23426031073443  -11.65061705608181
H        13.74479266271589   -5.98879293243011  -11.63581468859799
H        15.20483127555734   -7.77040197794906  -10.16202240214890
H        14.12747732489488   -8.75993188408368   -9.18576580321315
H        13.48353957089462   -7.86729084901896  -10.55588265710873
H        14.58309157815668   -6.75949382340363   -7.92432690318456
H        12.89785146426589   -6.70597153623803   -8.45028885951510
H        16.56549355036958   -5.36300407558243   -9.28966214157860
H        15.98082537663113   -5.71876557812826  -10.93241407668863
H        15.84144682392571   -3.38320304474111  -11.49950335342198
H        17.43297812132433   -3.57249765430801  -10.73710025079148
H        15.25717034432285   -0.31708116339772  -10.39722499945691
H        16.61563937048922   -0.09404577829426   -9.29639489713876
H        17.31952120823223    0.32043047518135  -11.61583851263216
H        18.12877864291442   -1.14540470803911  -11.07101305529187
H        16.72894189171123   -1.25259300446266  -12.13513576415541
H        16.95101358106157   -1.95997122801297   -7.21033488711785
H        17.26352206234294   -3.58146907060748   -7.82125721840110
H        18.67225833312793   -1.02461774813520   -8.75929002695982
H        19.34004158525727   -2.28712722663217   -7.73287139473025
H        18.97089866386481   -2.64099398526516   -9.41347821736473

