51
CSD_code = DOYRUE | q = 0 | S = 0 | Stoichiometry = C26H24Hf | MND = 12
Hf        1.03151476940126    1.67336533585420    8.68006365039929
C         2.81389046375908    4.55419725961463    9.19214936955054
H         3.45761711264161    5.01067397954370    9.95137999798456
H         2.30640854943261    5.36695531346590    8.66701960590650
C         3.68821344818865    3.76609950186672    8.19138733241218
H         4.18280408567227    4.46871542357303    7.51205751692907
H         4.47292076512950    3.22750898653318    8.72798678759937
C         1.78175997421377    3.67355309909841    9.84789008444570
C         2.04256288988341    2.69346230712575   10.85741570006425
C         0.78807434558740    2.23184805547950   11.40403969608088
C        -0.25976936115734    2.94916334374903   10.74028657409893
C         0.36238445120755    3.84840262200770    9.79190606039642
C         2.85110247326350    2.78218720702226    7.42226952568659
C         1.69692980825195    3.09484916563654    6.66477583203107
H         1.33847832194549    4.09700148266245    6.46654222793501
C         1.21035013564648    1.93297561151844    6.03652785532851
H         0.42395388552257    1.89711798296939    5.29874496706648
C         2.07036773196783    0.86224645585568    6.38173496676162
C         3.09724764989088    1.38681950097620    7.26178327882506
C         3.24534672488182    2.21795565076641   11.41627671975156
H         4.19850632076544    2.58379341394457   11.05903947723864
C         3.19422708407952    1.31891472592134   12.45441376911596
H         4.11349689128747    0.95931567975888   12.89385210273642
C         1.97359669434316    0.86607047271502   12.97238814518367
H         1.97831587887763    0.16609749076003   13.79405128179177
C         0.77825366779286    1.31822538448315   12.46049635665987
H        -0.16047625567797    0.98831438432103   12.88273029095153
C        -1.64347225352303    2.97631069062038   10.92890422637968
H        -2.10270605604809    2.32328900063930   11.65764717526343
C        -2.40848708713027    3.85859495342354   10.19956963015711
H        -3.47758039007008    3.89353615943999   10.34323661494818
C        -1.81411342302554    4.73243880436422    9.27923236946359
H        -2.44154463204347    5.42416041709782    8.73581359620360
C        -0.45626877923695    4.74035614743820    9.06698469541263
H        -0.01993124945923    5.45862413726818    8.38458068810666
C         2.12254235586196   -0.48497472471729    5.98198973364962
H         1.37249090081700   -0.87674388801331    5.30854188217334
C         3.15284162375382   -1.27586711776694    6.42195598290997
H         3.21277557487517   -2.30702419947030    6.10673571151795
C         4.15263729912563   -0.76784409158523    7.27105028532629
H         4.95203982794437   -1.42329672918701    7.58353341012703
C         4.13620190716415    0.53591089070118    7.69445010818913
H         4.93226705874439    0.91637986549580    8.32163472093045
C        -1.04019399339454    1.25138117755704    8.10008499780047
H        -1.64900586153044    0.90220860736390    8.94163446469970
H        -1.10338930297681    0.47564775718311    7.32792947906134
H        -1.53560738258243    2.14519522464478    7.70137006092374
C         1.43451701685939   -0.29830187219043    9.53760330449061
H         0.67896397127308   -0.60728564556762   10.26886188611804
H         2.40160436151658   -0.32659243241188   10.05338350906028
H         1.46284000628521   -1.07903296955780    8.76886229415580

