89
CSD_code = DOYTOB | q = 0 | S = 0 | Stoichiometry = C48H34I2N4Pd | MND = 4
Pd        5.31586143765819   19.82342710322988    3.60583742390580
I         3.68148145743260   20.21627189236431    5.67796617288767
I         7.00658834063838   21.77421302263186    4.27761516761080
N         4.36348653749723   17.02880566284972    4.38537738543746
N         3.52302311168130   17.70071188023951    2.49322682720070
N         6.22182490789651   21.01179171054694    0.94100971382023
N         7.01913058958071   19.01469137451445    1.28044101984181
C         4.42994158079523   18.00652556509478    3.45266622197780
C         2.85024940924217   16.54068664766529    2.82274403315298
C         3.39688986707659   16.10708260469269    4.03697281906812
C         2.93759011870014   14.94399531964557    4.63725920169032
H         3.33288482516504   14.58586468885360    5.57460926527010
C         1.93007782885251   14.25192251258144    3.99341746120917
H         1.54969517637025   13.34562989523142    4.43882636807384
C         1.38367720359708   14.69673716307469    2.79171170335948
H         0.59086292225356   14.12857262346501    2.33031284542366
C         1.83354988149416   15.85198768688938    2.18352032404766
H         1.41353091859715   16.20698674598049    1.25490835328890
C         6.15029091691391   19.93761239093708    1.76042122402562
C         7.67393746113937   19.50689564967355    0.16853294662746
C         7.15403467038794   20.78823363721904   -0.05233561635687
C         7.60218260237975   21.55203917495071   -1.11998220400447
H         7.22518687595244   22.54319262196490   -1.31646675448427
C         8.57367795271655   21.00018568552278   -1.93252273648569
H         8.94486249249363   21.57290852980007   -2.76838900257823
C         9.09559772014136   19.73024540011703   -1.69711708524679
H         9.86140656589087   19.34466836684737   -2.35219714224615
C         8.65489561075939   18.95872563906235   -0.64009338397005
H         9.05473776744778   17.97490477504979   -0.44771681797737
C         3.59153280237566   18.16294195949465    1.15631530601701
C         2.52696519063100   18.87052565917944    0.58181884632468
H         1.66378325128856   19.10061368886404    1.18689505953921
C         2.61146768731928   19.26637497999753   -0.72272397851190
H         1.79912844685939   19.80903976522060   -1.17989964387403
C         3.75283610236729   18.97363487457279   -1.49683148000813
C         3.88249597929411   19.42301908631456   -2.82779526055980
H         3.09088454822938   20.02796249629344   -3.24552370215853
C         4.98371748709475   19.10416099466366   -3.57092856111833
H         5.08100197208980   19.46263377588051   -4.58467574243654
C         5.98886670190446   18.28726296790254   -3.03065341007875
H         6.83823969090075   18.01593549592139   -3.63906770791411
C         5.89479265207824   17.83370534519097   -1.74573840885307
H         6.65635910150549   17.18658566085516   -1.33610680255926
C         4.79879287710629   18.19524979013004   -0.93378415653826
C         4.69881062248485   17.79097795566866    0.41979973672356
C         5.77454882590167   16.99125754015767    1.06310774922825
C         5.64126719271986   15.59180888335665    1.23445073844252
C         4.51060477720806   14.88382672084745    0.77440603344647
H         3.74489336447118   15.41923921352527    0.23254915227884
C         4.38907185324421   13.54245868986042    1.00162251742102
H         3.51457423061449   13.01240754066281    0.65590880195311
C         5.39850602222882   12.84246651574846    1.68045372460840
H         5.27965265606136   11.78466115254917    1.86115788810800
C         6.53016376962883   13.49024488395936    2.08818617178239
H         7.32413885568554   12.95347145255636    2.58686398431402
C         6.68945103659153   14.87505752228543    1.87056118565269
C         7.86261796753862   15.55609564672286    2.25433533860377
H         8.67396710106718   14.99049988948418    2.68473769900769
C         7.97941216255648   16.90610000067637    2.08253298194435
H         8.86802890396489   17.43884535022457    2.38365211087749
C         6.91576762944745   17.62229946910758    1.51743172639247
C         5.12683390247462   16.92072730683573    5.61632514994174
H         4.83676813837948   15.98279281245894    6.09090887821074
H         4.84494287444813   17.74242555859610    6.28529254763451
C         6.61784833225505   16.94184135016394    5.40194552572164
C         7.34624920401838   15.76230258704532    5.34036751612248
H         6.83584308872904   14.81067752398879    5.40277439900162
C         8.72613535084279   15.80258472055104    5.23326373793092
H         9.29026735994211   14.88058089104884    5.22863922759530
C         9.38461997893429   17.01773849403287    5.14737370610636
H        10.46156109396416   17.04406067058161    5.06502639294301
C         8.66326558305721   18.19913482343038    5.19208077152398
H         9.16978386154767   19.15259801120866    5.14835240719334
C         7.28608557848353   18.15959686742540    5.33451585505689
H         6.73313768996285   19.08629805260982    5.49796053971792
C         5.49767744687684   22.26582379453627    1.05230636223476
H         5.79234105280222   22.88156271423630    0.20191982942632
H         5.81137807342022   22.77934370437971    1.96890667083622
C         4.00035304370857   22.09993603529169    1.06502539777581
C         3.34761951554971   21.84120197208820    2.26522289882950
H         3.92145461399596   21.80854083129799    3.19343065616410
C         1.96654066534989   21.74861417885217    2.30957857306281
H         1.47306053592992   21.55586913636854    3.25130508638665
C         1.22654658699174   21.94237398073265    1.15495695580491
H         0.14757415788570   21.89925725477692    1.18984278515250
C         1.87047203908088   22.21417434061236   -0.04047196850433
H         1.29347753038944   22.39251333917694   -0.93699561033815
C         3.25290779608312   22.27512115180193   -0.09096681231712
H         3.75115669160513   22.48582695731962   -1.02760111188485

