75
CSD_code = DOYTIV | q = 0 | S = 0 | Stoichiometry = C38H30I2N4Pd | MND = 4
Pd        3.98563841202025   -2.15569661634811    3.68447583804242
I         5.70589098901444   -3.85297873222012    4.74232714546754
I         1.86892270754630   -3.74633817534886    3.75529226340360
N         5.43447645645281   -0.33450511778970    5.51701653441753
N         6.01180424311771    0.10642434916460    3.46383776666866
N         2.94727515071205   -1.96029699492058    0.97104009552725
N         2.35436681297094   -0.16407759562495    2.05263399129283
C         5.18781094253642   -0.64656210570876    4.22587327569845
C         6.44641911782174    0.59957506394548    5.58792759750673
C         6.82436177917210    0.88056199724248    4.26674049757041
C         7.84446217667371    1.76686303465252    3.96646869544958
H         8.14251676555021    1.95455417701011    2.94644212102806
C         8.46529794453104    2.38842423481656    5.03217650318754
H         9.26772770337855    3.08500279920816    4.84489498468119
C         8.08220272720695    2.12924811549025    6.34630216006250
H         8.59398358116498    2.63452938424379    7.15071358121098
C         7.07614791801009    1.23202883971230    6.64947657417879
H         6.80890444395628    1.02984338251007    7.67437005378954
C         3.11414364484387   -1.27722242564719    2.11868357105952
C         1.66327656341527   -0.14078116500519    0.85740602264194
C         2.04243875899689   -1.30327901625824    0.16544622661346
C         1.49695860825383   -1.59879147679692   -1.07389828953232
H         1.75329778883781   -2.50131095196190   -1.60477857802013
C         0.58472071561080   -0.69971482157136   -1.59344023286471
H         0.13774126558801   -0.90142847648607   -2.55467467063887
C         0.21406347958386    0.45219681701384   -0.90366859945387
H        -0.51028459584916    1.11951924435310   -1.34450466020940
C         0.74102863028139    0.75047019318814    0.33838802307260
H         0.44170159780619    1.63067601874293    0.88601854082982
C         5.81590314724900    0.33977785845522    2.07961027648245
C         6.69849955445905   -0.20922756042097    1.13725007965785
H         7.52280712852086   -0.81320013131690    1.48663048523497
C         6.47707945959091   -0.00115120864900   -0.19545159460958
H         7.13466601510938   -0.43690046617662   -0.93340212609964
C         5.38739530635664    0.78089941192479   -0.63350016664854
C         5.12253651155729    0.98201260520331   -2.00432490954170
H         5.76971227716841    0.50941656838053   -2.72878530755721
C         4.07244243147042    1.75739979752160   -2.40771549218044
H         3.87230405204925    1.89973221076662   -3.45888848681205
C         3.25543881922613    2.39138754756697   -1.45932552938652
H         2.44715462088332    3.02410778852572   -1.79298759274000
C         3.47897657699549    2.21179741633518   -0.12376860870698
H         2.86229135330882    2.71147924414675    0.60898391121308
C         4.52687141171792    1.38030548470332    0.32451116228603
C         4.74639520069447    1.12904661417750    1.70161022462576
C         3.79436738571851    1.61203212972912    2.73728706931826
C         4.11034350083216    2.68972640795891    3.59938794546635
C         5.27834107168905    3.46274031598389    3.43182700299430
H         5.91620806404182    3.26219477988747    2.58358015454690
C         5.58803826774174    4.45677032279018    4.31599649802565
H         6.48704052209254    5.03918228725207    4.18336467937098
C         4.74106522472020    4.73077474721160    5.40069749171493
H         5.00802138645717    5.51153397553151    6.09673417285373
C         3.57924512726310    4.03013286557794    5.56279713732133
H         2.91016345472757    4.25446319136811    6.38082632955336
C         3.22346909316335    3.00182767371640    4.66471521604813
C         2.01871932180297    2.28001734144620    4.80089378593462
H         1.35000995811365    2.53223757223748    5.61077682638377
C         1.70023552510206    1.27503634270833    3.93053218455498
H         0.78571951833212    0.70937685855210    4.02804029836165
C         2.60210957116387    0.93526776051705    2.91183948132655
C         4.76489718346898   -0.89494504385165    6.67523090088955
H         5.10911571293418   -1.92506042963605    6.83021171203555
H         5.06171771407202   -0.29993719053724    7.54092944826919
C         3.24719920622257   -0.87767465111467    6.52721854916310
H         2.88486478893242    0.13694408353634    6.36077076006165
H         2.79162316213261   -1.27443211308161    7.43088919554886
H         2.93082858322822   -1.51750998864999    5.68066595665739
C         3.62912479431395   -3.19703604065104    0.65157011146277
H         2.88165530609961   -3.95793257375213    0.40367882927501
H         4.18115040210745   -3.52502755030097    1.55587937234565
C         4.61894667905677   -3.01575254160388   -0.49272715438011
H         4.12286703619321   -2.65528819362686   -1.39109059089720
H         5.09231303679296   -3.96885732979039   -0.71198485183849
H         5.38942920592521   -2.30012217015780   -0.21287187027687

