68
CSD_code = DOZFIJ | q = 0 | S = 0 | Stoichiometry = C36H22F5IrN4 | MND = 6
C        26.19619813912894   20.38077742966459    8.21063782643875
C        26.22867951963207   19.69881001382517   10.33640948988056
C        26.25360216111092   19.62888006651728   11.72036452980733
H        26.34167945302471   20.51852219938471   12.32358907662552
C        26.15297354974691   18.37702540837670   12.29252162200721
H        26.16771711022173   18.27698395280235   13.36662901542116
C        26.01692957251276   17.23975540473337   11.50053359325504
H        25.91992478213786   16.27689152172227   11.97816751844477
C        25.99585042131930   17.30484832823146   10.12055516471360
H        25.86311707277153   16.40000192755915    9.55394891148729
C        26.12197616434586   18.55330570619006    9.52105715276113
C        26.36400035153556   22.14187060857415    9.94957511733170
H        26.33768707624760   22.80424522761647    9.08667575834960
H        27.29770534244051   22.29230471220153   10.49506341775456
H        25.52766877091701   22.37647905843691   10.61098080794943
C        26.06855239345265   18.35624386572054    6.97204098077904
C        26.16703731712025   16.97959085888309    6.84326407659677
H        26.32920239584877   16.34056374284835    7.69377859126344
C        26.08635710407402   16.40008616304814    5.58879210778169
H        26.15662801928867   15.33185375618009    5.46064453752272
C        25.91746802945147   17.22507353553043    4.49511566166849
C        25.86187204935288   18.60212250769413    4.61470431944392
H        25.75876740697993   19.19431609254725    3.71773680720216
C        25.94553906391251   19.21513858070811    5.86059249672414
C        23.23068947869237   20.99461476544437    7.32020838110974
H        23.72480437072970   20.69920950317493    8.23548443994532
C        21.85361254858114   21.04306610666529    7.27712401301392
H        21.27559054239320   20.78645407607230    8.15027975938611
C        21.24249926765924   21.42742200437422    6.09119882731404
H        20.16770582276303   21.47771279032024    6.01230942063394
C        22.04030323026140   21.74852092999688    5.01317187276621
H        21.58209105205366   22.05188797197104    4.08901917934996
C        23.43220463578382   21.68412062093604    5.12022088156472
C        24.36823837481029   22.00890105660191    4.05600217227769
C        24.03057079848410   22.41886672076140    2.76411416023395
C        24.98178875502048   22.70352550177195    1.80864859910306
H        24.69620102330077   23.01672862601929    0.81842403992470
C        26.31068602777651   22.56960662200015    2.17206150174172
C        26.69003498959745   22.16933095029919    3.43588740428944
H        27.74636818215959   22.08586777922716    3.64415498758963
C        25.73546911042132   21.87984625939929    4.40901997967778
C        28.86210829702367   20.38600816877803    5.86264440267703
H        28.38810186843705   19.42727556025311    5.70410451176309
C        30.22790425015614   20.51591835484225    5.71506295262350
H        30.82607918405223   19.66038678180408    5.44678710732203
C        30.79738830685987   21.76622471973332    5.91019820610458
H        31.86026048244311   21.91540047494393    5.79878064180140
C        29.97549392094596   22.82253263055782    6.24562582682084
H        30.40471914011754   23.79708328309077    6.39399107600807
C        28.59786650320422   22.62938373950183    6.37971590814981
C        27.63886497644744   23.67517696669712    6.71469500711073
C        27.94596205477722   25.01512622497903    6.96040677961825
C        26.97936585736012   25.95187803024707    7.25913080968669
H        27.24406010473335   26.97984618437395    7.44165729189207
C        25.66472346251676   25.52204246814580    7.30723822998171
C        25.31627334596557   24.20791932630674    7.07689219613251
H        24.27133395086965   23.93872589306037    7.13412310713467
C        26.28598445329606   23.24941935301138    6.77884700425232
F        25.82702295506833   16.66440770969261    3.26477859028600
F        22.73822079111538   22.55831218640856    2.38117981225246
F        27.26019454869150   22.84257563964329    1.25131027916876
F        29.22312973070865   25.47015524501018    6.92858314519763
F        24.70258243278863   26.42358598260522    7.60386266662582
Ir       26.03360835405613   21.25595387632426    6.31211872942298
N        26.26850569691783   20.78446018967553    9.49299198842886
N        26.12851007052683   19.02141502947716    8.22070040886477
N        24.01780966199949   21.29818230888962    6.28462746077795
N        28.05603412185875   21.39903071791479    6.18583765876238

