65
CSD_code = DOZGEG | q = 0 | S = 0 | Stoichiometry = C33H20F7IrN4 | MND = 6
F         5.70987066444234   12.53315736120267   13.58266661624444
F        12.07020803412735    5.15241734339349    6.91682746430779
F        13.31931527005148    6.77672677735331    6.26202974721211
F        13.44918400970086    6.06614651546750    8.28756693088115
C        12.57700019959631    6.34321168265587    7.29057485953307
Ir        7.91790022056583   10.23992565104247    9.32645691129277
C         8.61554964575417   12.02881587734168    8.69084938613761
C         7.35649612042687    8.26563751516293    9.82786954641228
N         7.17698889150603   10.24078664884199    7.45394116378082
C         9.55117121394007    9.13900478262948    8.58756184174417
C        10.69748753448144    9.55758671107334    7.91344398031290
H        10.83661250156072   10.61106953544772    7.71747627768516
N         6.38723937821414    7.57877039954926   10.45758456368954
N         8.28694978693022    7.34076927701004    9.48555009439680
C         6.34645572301623   11.24699198335681   10.18961419025610
N         8.63097713417525   10.45697659052110   11.21176347071120
F        10.55488664825459   14.99635123058225    9.49758635741092
F         3.04638761528892   12.72033357627178    9.75217902673885
C         9.38981859174714   12.95144148165767    9.39095549749702
H         9.68377351754286   12.77360916741102   10.41458909665553
C        11.52159664010951    7.31469050183348    7.71603053403808
C         6.55778989878094   11.55449388460017   11.55926575547786
C         6.42855552410432    9.26682052481611    6.93050344207867
H         6.21062065411727    8.42609498385540    7.57489968344030
C         9.44771188456352    7.75048458154648    8.80196131094896
C         4.19995621362349   12.34026285687036   10.34355301358733
C         5.56680745622008   12.23717393633573   12.26729489778203
C         7.83913862405955   11.11413363731872   12.09797879885811
C        10.40165475521505    6.83912710237479    8.38571717028703
H        10.29513528551354    5.77912865855139    8.55973505201259
C         8.27190819431792   12.33292651597165    7.34883497003259
C         6.22725654612603   10.38479433168396    4.84226533105708
H         5.86143015023333   10.44335810521084    3.82904397779288
C         6.70500430646541    6.24581012606064   10.51228965976760
H         6.06506780551423    5.52235690740312   10.97394327200266
C         9.80468384459122   14.12257536342781    8.79240871762229
C         8.71471001783192   13.53089592835395    6.78394388183923
C         7.46548747696207   11.32186047859572    6.68299951296911
C         5.14743949493546   11.65911568787997    9.60799780284644
H         4.93770724748536   11.45567246053272    8.56781666956686
C        11.67396830945032    8.67394897464195    7.48259158955095
H        12.54919260406361    9.03240041688273    6.96201357630719
C         5.93370627688684    9.28986003999793    5.64375909580790
H         5.33347792275735    8.47184680625266    5.27946359325961
C         4.38396051181783   12.63739858482395   11.68255471783964
H         3.63731054452992   13.16586126199820   12.25118542413946
C         5.18516187346050    8.13956407116112   11.00757850634375
H         4.31321188803700    7.60021951119253   10.63533321197427
H         5.11947696827190    9.18541832372319   10.71352283041836
H         5.19791502842650    8.07575599993628   12.09749762395242
C         6.99543524556444   11.40179961923070    5.36960066279619
H         7.22769055862689   12.25822413530750    4.76228390844995
C         9.47998921489026   14.43806994408821    7.48443667632559
H         9.80958292690259   15.35548049629468    7.02631330631407
C         8.27562112792362   11.33284949660979   13.40711261387251
H         7.65059148967835   11.85599557401963   14.10841944439385
C         9.83236614521661   10.03637616650476   11.61193006049984
H        10.43668493251764    9.53307234287079   10.86976254335609
C        10.31806165279852   10.22400303987931   12.88997478831321
H        11.29928616959242    9.86405705094922   13.15321534880207
C         7.90282225423359    6.09508310823630    9.89749579267603
H         8.48152616511138    5.21005411388653    9.73697099854994
C         9.51863659497167   10.88818055510858   13.80942728848449
H         9.86017611982373   11.06067159224488   14.81831153372730
F         8.41331275234969   13.86270209295944    5.50547438693845

