77
CSD_code = DOZGUW | q = 0 | S = 0 | Stoichiometry = C39H24F9IrN4 | MND = 6
Ir        6.85889599784992    3.18995124838941   17.32579182891743
C         8.66635932982470    4.21279671362697   17.06168133916100
N         5.85412179562142    4.88980976310978   16.89905695041793
N         8.47053118042638    3.31960815177827   14.86672779594500
C         5.17022968280343    2.04442248437039   17.60208320980512
N         6.78118561030414    2.06315680928155   14.30741198401709
N         7.70854786475929    1.46135626201294   17.97647636930164
C         8.63158134967573    3.04480559295668   13.52004394224867
C         9.24416676081797    4.06800400696445   15.78300719226991
C         5.44064888199259    0.76672192940479   18.14703156785487
C         9.39781350478425    4.95527477510506   17.98635727379952
H         8.99586724729756    5.10041035767561   18.97869791105954
C         5.77375513031987    5.05856375252165   19.26202905219715
F        13.38401312950542    5.84025789922004   17.11287254924548
C         7.33317814553855    2.73247608996587   15.33408355760005
C         3.82767346507181    2.36270898823276   17.39827181802702
H         3.55115197570402    3.32572020760439   16.98882857568701
C         6.50853524360306    3.85279574086646   19.20651754118459
C         6.53822894203207    3.88347288456993   21.63139980665239
C         6.88030942463326    3.28969249547467   20.42551065651069
H         7.44702343561910    2.36910024955089   20.45727406966961
C         6.85490461242935    0.47435649745635   18.34828613013369
C         5.41450930565402    5.60825924540968   17.96410753249271
C         9.01932797942581    1.26627312051760   18.13860215312326
H         9.66764030274055    2.07976898911697   17.84338788228573
C         7.54093860020876    2.22275624798152   13.17081453917696
F         6.80055442378558    1.89327697008508   22.89044821315012
C         9.35189497748720    2.93079523420670   11.25728295581078
H        10.05300035379990    3.20972277440703   10.48599518947960
C        10.62986351484451    5.51250914181782   17.68739166565959
H        11.17310729507621    6.08388154891463   18.42487643511213
C         4.41628313191388   -0.12733592677375   18.45961352160541
H         4.63239537666191   -1.09581349884862   18.88354064615541
F        12.41822479741281    7.21866070424739   15.77526021083107
C        11.17758360734241    5.31111727579271   16.42936377756592
C         7.33863875506932   -0.71943058487934   18.88601719929668
H         6.64775248934050   -1.49093748207424   19.18264164225486
C         2.81285171404459    1.46479579821709   17.69796038010120
F        13.10696444952747    5.31871636558214   15.04488453096381
C         3.09931705257009    0.21469485082280   18.23335465852033
H         2.30154362381749   -0.47202581790252   18.46908440682987
C         5.55577786241367    5.33216577391481   15.67377247900639
H         5.91297554196388    4.74087786862179   14.84197440775775
C         4.82684195174074    6.47685398649184   15.42983826838543
H         4.61769667684731    6.77819740647820   14.41619786560683
C         9.54357555717225    3.41450236693725   12.53752206520610
H        10.37552017645485    4.06890325846639   12.72905526254126
C        10.48755568502740    4.58641388278217   15.46631719160862
H        10.95020262713226    4.42684791903520   14.50874023411709
C         7.35345173245780    1.73810306910285   11.88610536506384
H         6.51234722961075    1.10838281399470   11.64340919500463
C         4.37158879540954    7.22009972722467   16.51163935491145
H         3.79535828597409    8.11977474189470   16.36188212617134
C        12.50847415578407    5.90864675196821   16.09596199206027
C         9.55635214240069    0.10894912058111   18.66480881829552
H        10.62392571414128    0.01242409648167   18.77639530872008
C         8.69487946302998   -0.90943996052257   19.05088775866069
H         9.07553791180435   -1.82610612157934   19.47402023234920
F         6.37755069008561    3.68695260899070   23.99888790993914
C         5.43484271505108    5.65363962408099   20.47778574944968
H         4.87332023117675    6.57459312542677   20.50804854588995
C         4.67258043689766    6.77633343064105   17.78182957374741
H         4.33006077132358    7.32911952453386   18.64065909962510
C         5.57384382902006    1.28796027652221   14.35294795443055
H         4.83909958224176    1.69030895964584   13.65304224742465
H         5.16770277987191    1.32921762202005   15.36151244110639
H         5.78293556958565    0.25007222909041   14.08708345388056
C         8.28218122717306    2.10104860445153   10.93192100567839
H         8.17455334026654    1.74650461377401    9.91877895453675
C         5.81526250765338    5.07049477866150   21.66738685164554
H         5.55651335449788    5.52130571260822   22.61268587858654
C         6.99350305316238    3.22739913065016   22.89962480099070
F         8.31647328774703    3.39816696837075   23.11612393550566
F         1.22583506928308    2.22592461467675   16.12191002520161
C         1.40147607470831    1.88316363691756   17.41885297766362
F         0.48967464825777    0.93478631207126   17.67660938672773
F         1.03201486129502    2.96706366821202   18.12991262038126

