118
CSD_code = DOZHEG | q = 1 | S = 0 | Stoichiometry = C56H56N2P3Pt(1+) | MND = 3
Pt        6.99371656249283   10.81189650916676    3.74806192150782
P         6.05860559846678   12.28716094995313    5.07997895822714
N         4.57898858102417   12.98288500384514    5.11587840871914
C         4.40158830340707   14.01022864800113    6.13514668178836
H         3.40760670014488   13.94129144992888    6.57793225980605
H         4.50231242471220   15.00273857055177    5.67893323232457
C         5.50401154529483   13.76113003123407    7.16976733688459
H         5.91381448866053   14.69470651608801    7.56084252266731
H         5.12796767016338   13.17206927333221    8.01455997601153
N         6.53681244385981   13.02154397381184    6.45904073215895
C         3.58229165328264   12.65093559557164    4.15905581708143
C         3.76682783230193   13.01298905360411    2.82266554777668
C         2.81191256332135   12.62997173179117    1.89401403352041
H         2.94031195457099   12.91840276860417    0.86106868855182
C         1.70008603511746   11.88320424792382    2.25759058719918
C         1.54951523899252   11.52515700018325    3.58917500931897
H         0.69487216606683   10.93592976320584    3.88695815043327
C         2.47550050308010   11.89642211116769    4.55224769530637
C         4.98580596054889   13.77001006673709    2.38689987627207
H         5.85359803032518   13.10025924497435    2.34304297773226
H         5.22381282320528   14.57884976925566    3.07632806078602
H         4.83681167457229   14.19044482642515    1.39592220325212
C         0.71051031615932   11.44130374709282    1.22634224845144
H         1.04674896143410   10.50886981446106    0.77103142045456
H         0.61301541523182   12.18355176301133    0.43803711496674
H        -0.26567987899775   11.26758563580150    1.67096459167107
C         2.29496552109617   11.47005161466866    5.97700380029963
H         1.64541291943582   10.60122498761322    6.02997491729799
H         1.83536789974567   12.26500643559462    6.56504556293327
H         3.25244871892491   11.21181841593948    6.42921407190749
C         7.86188742847030   12.84050474884326    6.94349625983312
C         8.14977605829308   11.81201351563380    7.84042923072170
C         9.46782187194691   11.62877101815305    8.23195839690156
H         9.70092609655177   10.84140730609169    8.93398215696822
C        10.49109964909197   12.42505295195818    7.73746293618554
C        10.17493488164478   13.43791905672627    6.84168497930596
H        10.96148362714090   14.06609254773437    6.45117151148326
C         8.86997653267252   13.66201556411097    6.43489075109850
C         7.06411903719831   10.91693313524650    8.35554571102265
H         7.48556197526104    9.99637886645409    8.75043851506021
H         6.35745818722839   10.66597231715644    7.56219872652321
H         6.51441911148221   11.40603002696343    9.16006737007591
C        11.91210094093133   12.17292642936137    8.13125486129280
H        12.48687300531797   13.09540796833461    8.12609162045930
H        12.37215645294314   11.48456742644349    7.42096842058961
H        11.97011416924846   11.72542720700559    9.11996566696715
C         8.53408274153877   14.74964168129919    5.46133606406802
H         7.81957282537229   15.44980710357898    5.89233510659175
H         8.09158055307745   14.32682709032331    4.55668225899466
H         9.42705275660358   15.29780481197127    5.17663782711496
P         8.97778805615471   11.13008019450018    2.57063329593276
C         9.71840992218967   12.79453933247053    2.49966301765760
C        10.80967021301753   13.17503769211344    3.27062904931284
H        11.27256286236892   12.46532882720367    3.94125017517485
C        11.30444237094875   14.46451775274679    3.17316960307528
H        12.16273654781994   14.75392156333412    3.76181514173825
C        10.71032474119158   15.38010509248862    2.32085441378799
H        11.10274051695454   16.38289569868370    2.24614826704965
C         9.61028925251331   15.00865069942317    1.56234016005737
H         9.14478559829231   15.72200470297622    0.89886742937563
C         9.11484033131849   13.72286367614531    1.65369407732080
H         8.26050628109512   13.41937550596646    1.06105497164179
C         9.29471752242934   10.52402917370496    0.88381791403096
C        10.36926823290338   10.97777712021164    0.12351537168554
H        11.02689696165005   11.74104310743648    0.51653551349718
C        10.58583396008738   10.45844110321098   -1.13955038006220
H        11.42105179643590   10.80991052646527   -1.72673690508864
C         9.73496257593487    9.49219265172579   -1.65367747680037
H         9.90949859278060    9.09199662287372   -2.64074159987204
C         8.65783916324290    9.04720643842196   -0.90513315556477
H         7.98649950551142    8.30185115439822   -1.30473639631276
C         8.43773080106528    9.56356024612444    0.35822916965871
H         7.59116739133599    9.22707273765230    0.94372280224237
C        10.16577871441065   10.21590605527498    3.60592693317452
C         9.79724475780731   10.02085331242790    4.93541079519888
H         8.84335376157244   10.42133586605085    5.28917406878796
C        10.62765349576084    9.32899614317121    5.79496905533178
H        10.33707174272855    9.18090947513394    6.82379432620269
C        11.83124982781332    8.82240045038274    5.33038996810414
H        12.48147958384912    8.27771530916391    5.99823514998127
C        12.19834560627291    9.00639801819458    4.00698072568114
H        13.13395569316545    8.60595706931171    3.64619544398109
C        11.36996350250723    9.70009179706891    3.14218222442215
H        11.65387568153709    9.83307989134381    2.10791005547370
P         6.09981195986088    8.66623660482028    3.58332254180297
C         4.79357462941346    8.32830158056772    4.80766385669225
C         3.44448410348663    8.24662513456102    4.48852843451823
H         3.12190882535201    8.35809591393498    3.46322813628460
C         2.51466173028261    8.01629476420531    5.48849225174137
H         1.46798725988165    7.93350243515380    5.23483771910500
C         2.92058198586697    7.88372676708131    6.80572365766268
H         2.19153565515787    7.70114020543910    7.58065256446236
C         4.26513754853932    7.98703329168414    7.13098152479328
H         4.58221264823390    7.88755303102152    8.15866803125058
C         5.19666767666753    8.21043496491811    6.13656148539453
H         6.25168687665589    8.28511417693294    6.37300951896913
C         5.20719867784317    8.56990602114689    2.00347840756015
C         4.85271834853967    7.37855256892765    1.38219000076604
H         5.11583348073588    6.43282727145349    1.83437266811412
C         4.16810402602233    7.41243709317234    0.18004593516641
H         3.89143575090010    6.48828606845930   -0.30487159192373
C         3.83947435380721    8.62590296131121   -0.40384435905956
H         3.30789311940530    8.64323656821715   -1.34335520912054
C         4.19969496923831    9.81558396442121    0.20968651223069
H         3.95271732553821   10.75948128197740   -0.25120990161566
C         4.88398256959011    9.78635535196984    1.40897875224072
H         5.18769830968045   10.70849865519919    1.90586089421705
C         7.06669608873358    7.12452736412616    3.63175500524675
C         6.52506459902233    5.92120902316829    4.07486984933697
H         5.50559625001761    5.88476129094627    4.43352220998199
C         7.29647109686362    4.77345801574173    4.06221241808027
H         6.87322904393069    3.84080127803148    4.40429686594954
C         8.60742327989436    4.81669784082165    3.61428487840418
H         9.20468727622465    3.91770165781732    3.61032668133638
C         9.15073374482002    6.01305222361173    3.17567929888598
H        10.17278699249855    6.05346790728441    2.82985139287263
C         8.38255310162567    7.16195884309773    3.18412901297480
H         8.80426260250743    8.09945257775319    2.84661457327175

