43
CSD_code = DOZHUW | q = 0 | S = 0 | Stoichiometry = C21H15MnO5S | MND = 8
Mn        4.47868191839464   10.99317271663206    8.18095748682579
S         9.99789035651033   13.27142903704049    7.64372004319250
C         4.56762684913529   11.35655699840142    5.99093755150965
C         5.71207039952128   11.95404274844404    6.54181244194410
C         6.52064097580786   11.15715345216542    7.42090305719647
C         6.15905908212615    9.78730312737029    7.61260880022722
C         5.10181088038649    9.22817151578686    6.91661357603680
C         4.68085230197941    9.88245527837822    5.61956563467572
C         7.83023559642433   11.60718695189898    7.96338260239045
C         8.68190293664660   12.32917891959473    7.02273355819902
C         8.68361978378123   12.31316231458991    5.64966223479587
C         9.72858916732083   13.07254529435007    5.10052414734715
C        10.50690397493099   13.65409676481514    6.05724136763490
C         5.18825275109066   14.14157147899519    5.75350172971800
C         5.64469636395186    9.71041835296820    4.45759531728118
C         5.21224029268374   10.07936822106111    3.18725637595345
C         6.06748298111145   10.01974897848762    2.10316120151337
C         7.37259484226785    9.58745060246719    2.27235525857941
C         7.80969668100917    9.21025959485012    3.52926334562571
C         6.95250851507909    9.27287377936144    4.61594362710788
C         2.77903992932018   10.48307087856949    7.98223524304878
C         4.67999081495938   10.42234726408778    9.87118968522003
C         4.14854544745713   12.63997584842044    8.79793148099702
O         6.05307928473354   13.25910825597272    6.43548314321812
O         8.20089275605358   11.31917478312514    9.08641191791712
O         1.70154422773436   10.13813514477488    7.78817544048310
O         4.83270134854516   10.05495739641157   10.94430510284333
O         3.97709712281924   13.70992910825489    9.17862961375771
H         3.93365036954039   11.95776150842686    5.34512836891350
H         6.74580407985754    9.20703598773251    8.32350407059721
H         4.88880331495482    8.17014883273789    7.03848552297520
H         3.69878260933202    9.51093054836581    5.30701463593181
H         7.97938523340494   11.75659812355722    5.05530538454836
H         9.89577951054979   13.18328848096632    4.04396007629926
H        11.35856351562371   14.28977567522671    5.91421266244355
H         5.67527108725686   15.11358998432079    5.79858911097294
H         4.21226205919722   14.19898412226706    6.24615344654858
H         5.05847452903830   13.84663604514706    4.70732197197174
H         4.19289548026161   10.41334253573378    3.04969869988541
H         5.71469098763810   10.30908793346833    1.12419513963116
H         8.04321444675672    9.54075242192319    1.42755412263668
H         8.82411141697528    8.86722723168312    3.67103317279273
H         7.31326377783463    8.96859576116613    5.58844262860945

