71
CSD_code = DOZTIX | q = 0 | S = 0 | Stoichiometry = C30H38Cl2Zr | MND = 12
Zr        3.70052644449922   11.37248652417186    3.09371728479262
Cl        2.03404443041212   12.85675433974203    3.84867370139202
Cl        4.98445795414231   13.23755465615457    2.49286028999765
C         1.74084159826180   10.81218069410181    1.59409207611725
C         2.35145597935236    9.58825003244980    1.95201594804797
C         3.68881163322260    9.56648118105848    1.47619483876965
C         3.90795175791698   10.77668675997571    0.74234756354422
C         2.69701543717175   11.56673017587143    0.82068146867341
C         2.65808472849631   12.83801724582507    0.19063610766206
C         3.77730745755815   13.27214497222777   -0.49934466800040
C         4.92821574631988   12.44949575898845   -0.64521035641664
C         5.02413805125865   11.23538256056729    0.00577357102961
C         6.28079879597746   10.40730747520872   -0.01836236697948
C         6.07170314533572   12.92182341014713   -1.50060006836559
C         3.81144494972754   14.66095199483843   -1.08146708469974
C         1.40846370598324   13.66874465019018    0.29940793978040
C         1.63550640593386    8.42271470471587    2.57974698768724
C         0.28275284589529   11.09564442692384    1.83664898312418
C         3.56581942856876   10.51385277578427    5.39393242842719
C         4.02098965626693    9.41552188321761    4.63066379858901
C         5.33367469075237    9.71657184179983    4.14982544913187
C         5.66844752968324   11.05010465577316    4.59874685157689
C         4.53963416293130   11.54950252929352    5.34796997693546
C         4.39305517640584   12.87327902514073    6.05158701005085
C         6.94687122030976   11.58259321679403    4.29109882600725
C         7.80529239493627   10.82908072772113    3.50890456623549
C         7.51440850392037    9.48175868629340    3.16790308949033
C         6.29322422234515    8.91678036531402    3.48513704057947
C         5.98580307733994    7.46880592487803    3.19698599228543
C         8.58360310307450    8.65926345169437    2.49933335518935
C         9.09726784919675   11.43801755584323    3.03275356099031
C         7.37280082375319   12.91323348294156    4.84588333524976
C         2.29292591397441   10.52258191571968    6.19599222122905
H         4.30582446705609    8.68043996385145    1.43558689344267
H         6.42429728439828    9.93406946787757   -0.99082551635651
H         7.14603276449573   11.03323351929928    0.19333109292974
H         6.23536770542001    9.62908872353347    0.73911550089775
H         6.67340741132195   12.08347264473775   -1.83789858995539
H         6.71629898721978   13.59705440166884   -0.93656742181375
H         5.70706075177482   13.44601781924150   -2.38015472006331
H         4.82981454708973   15.03285552133087   -1.12393301320878
H         3.24579576819091   15.34919974829712   -0.46051248479691
H         3.39468622797985   14.67743298046361   -2.08987406860183
H         1.38727332562966   14.46677502728735   -0.43455131741428
H         1.34115780221786   14.10850840979604    1.29640971637459
H         0.53324859128468   13.04653924148590    0.13639619137030
H         2.31136955598026    7.57753754493708    2.70029522332492
H         1.21064906518346    8.67935265072766    3.55306670543004
H         0.81595062609302    8.10216858910261    1.93408751480851
H         0.11580767407497   12.11241474182660    2.18476374821549
H        -0.10654844897642   10.41741488256769    2.59498709914505
H        -0.29360332249975   10.94107609596637    0.92114822844957
H         3.55575515258676    8.43992234876868    4.64012937361597
H         4.69533193103268   13.69602427667749    5.39983724936720
H         4.99429130368312   12.90635701805951    6.96375598769985
H         3.35171727669112   13.03000143339113    6.33374673022765
H         6.60087416362252    6.82062472338850    3.82213539163490
H         4.94576191537384    7.24179089575700    3.41318984030059
H         6.18394543612925    7.21502119485944    2.15579726084195
H         8.38353368331820    7.59751200454857    2.59639860178855
H         9.55251972089906    8.85763570973899    2.95157347385217
H         8.65112153592156    8.89391119390798    1.43612702341702
H         9.41499635118353   10.98791922339613    2.09703231037315
H         9.89635017867128   11.30116003605532    3.76314657309316
H         8.96743654226876   12.50275215918462    2.85997566363678
H         8.45281610587410   12.96474021525193    4.94858054164628
H         6.93680506715842   13.06473169144170    5.82744181448733
H         7.04412529060418   13.72074229990378    4.19217106502801
H         1.60645389862485   11.30102965248721    5.85407081803786
H         2.51389268771165   10.70584013229179    7.24831609890255
H         1.79284215427276    9.55733221594564    6.11807368223640

