49
CSD_code = DOZTIW | q = 0 | S = 0 | Stoichiometry = C24H18N2O2Se2Zn | MND = 4
Zn        4.53117541899113    5.41241209644848    2.82861102129560
Se        3.74359315881323    5.13754161500785    0.37073904141389
O         2.99777307890545    4.03735628035717    2.68557826350632
C         2.78473039655017    3.98469283466315    1.46533487792050
C         1.79406834737627    3.05819374602158    0.90933026487870
C         1.50653352019104    3.00887197226592   -0.45291948403374
H         2.03334493374164    3.67507633228069   -1.12331338035349
C         0.56374367229089    2.12032814671052   -0.93052200202180
H         0.34421523329440    2.08617434091004   -1.98729060861883
C        -0.09918438651907    1.27187052793969   -0.05669598989270
H        -0.83531537554289    0.57681381600639   -0.43347534579602
C         0.18333045938243    1.31261134031357    1.29996277680905
H        -0.33116526594516    0.64952533518688    1.97996168509165
C         1.12387667102583    2.19971584583246    1.78412526629072
H         1.35827370086651    2.24155450167557    2.83755190249830
N         3.27941730752248    7.05318849198269    3.27553466415338
C         2.09432701331119    6.96012810385013    3.85201635748625
H         1.68001154979842    5.96395852751747    3.91745033248290
C         1.41955098566554    8.06166425804418    4.35147063762924
H         0.45340948891489    7.94546758943719    4.81504067670186
C         2.02599911438074    9.30370916348874    4.25000201835708
H         1.54289889304433   10.18653020804432    4.64131967067072
C         3.26712802703400    9.39892156966620    3.64478075819187
H         3.76349738362697   10.35309751419702    3.57626411688530
C         3.87185536656790    8.24347651926517    3.15394281091491
Se        5.31905847537757    5.13457892332692    5.28493120561384
O         6.06449982638843    4.03702866542210    2.96879603500753
C         6.27806871961011    3.98313288921650    4.18888002979768
C         7.26920180869085    3.05636941289202    4.74353173062030
C         7.55915829178610    3.00747740154725    6.10528251384969
H         7.03377626329323    3.67413259454374    6.77634247506183
C         8.50240796728340    2.11869059952645    6.58153581593211
H         8.72382885953524    2.08484624357495    7.63791725269609
C         9.16328627640573    1.26948992833027    5.70686439812326
H         9.89984152270840    0.57432296265390    6.08259313179284
C         8.87834082788607    1.30980246099114    4.35070284851907
H         9.39134705743661    0.64625515504710    3.67004218595131
C         7.93742038252919    2.19723236268694    3.86786773126482
H         7.70115768124831    2.23878486286980    2.81484661374032
N         5.78242044853413    7.05337469658063    2.38036229886409
C         6.96739655221705    6.95998925387971    1.80368835031649
H         7.38307674409896    5.96418219769561    1.74147932026616
C         7.64036051271392    8.06070057091728    1.29999033374729
H         8.60640319463820    7.94420547276723    0.83630334109560
C         7.03224795163893    9.30225177115801    1.39742167550037
H         7.51393963324555   10.18436915542251    1.00282790555805
C         5.79131523581072    9.39785554923773    2.00298861344241
H         5.29366288719482   10.35157668483641    2.06844981965711
C         5.18839418646059    8.24326950763079    2.49805404114238

