71
CSD_code = DOZTET | q = 0 | S = 0 | Stoichiometry = C30H38Cl2Zr | MND = 12
Zr       -0.06560361871796    5.51108699696778   10.07555211019157
Cl       -1.87329574895675    4.02281388761898   10.27500137779464
Cl        1.39890849296400    3.67739214168692   10.01172943279645
C         0.60361217230704    5.41245636825074    7.61456617282587
C        -0.83212057733843    5.34798657656177    7.68184072640664
C        -1.28917887765777    6.56331856476608    8.24887032853273
C        -0.17437923579203    7.38131023081411    8.57013570323354
C         1.01172596046843    6.68582527783102    8.16587743157152
C         2.37928450972838    7.04778304180296    8.20173135702139
C         2.78098620903426    8.41293424320331    8.69993318778848
C         3.31108241912246    6.15560521236515    7.70407067799504
C         4.77767826427695    6.48437838460995    7.77690697354907
C         2.91100542539567    4.92263936862030    7.12483326756880
C         1.58641477184392    4.52216008897579    7.11537793008129
C         1.18949871429980    3.15054430768737    6.64295271253367
C         3.96065083166241    4.03643401190237    6.50978063860018
C        -2.72764549587321    6.94668178503012    8.46721315243713
C        -1.74347000040542    4.31709913803339    7.07232511033324
C         0.25708848328065    5.38848871283665   12.47504603644308
C         1.32881590117151    6.18322797092565   11.98405568677976
C         0.80887630983269    7.38670831477248   11.45663824310303
C        -0.60452190305974    7.40102569472580   11.67906155263232
C        -0.95656741866136    6.15414685271671   12.32249172912088
C        -2.30696019416182    5.92313158351078   12.68903978321684
C        -3.25959409318218    6.85962704921520   12.32453544363001
C        -4.71592171644762    6.55743691399635   12.55643959262058
C        -2.89637134620070    8.11596837632571   11.77172985771239
C        -1.57766929390369    8.40755496361092   11.47410099951652
C        -1.14929038531926    9.77454537127974   11.00216358215043
C        -3.97394314941239    9.14484224861108   11.55734420970523
C        -2.68587648037225    4.70714309128650   13.48780107983720
C         2.79404460386601    5.85731523981615   12.07338586369502
C         0.43579447657997    4.02858445240354   13.09686470567232
H        -0.24624981459954    8.42840173734606    8.82708992821912
H         3.33644184477824    8.35177805298814    9.63698777100961
H         1.90631751285383    9.03860379298354    8.85556476559197
H         3.41629860386950    8.90905734533864    7.96760125467388
H         5.35083469319026    5.60299299950993    8.05347009903978
H         4.97238657798453    7.25318038499954    8.51752839641638
H         5.14455312107738    6.84362325321827    6.81431844466927
H         1.98859125547993    2.43808234108214    6.82591435252029
H         0.31725727904843    2.80871188871591    7.19230768802532
H         0.95849729012666    3.14850507985330    5.57681911943700
H         3.54186266200699    3.44802473876587    5.69889038440132
H         4.36948126934713    3.35238724608684    7.25465811488142
H         4.77676699749858    4.62468575386317    6.10115506228401
H        -2.79091798506253    7.94034204018459    8.90748731454395
H        -3.22154169766886    6.23505777160323    9.13687758914066
H        -3.27221333901852    6.95788389604923    7.52123216449481
H        -2.75796898653550    4.70868336333365    7.01957419182708
H        -1.78021624251563    3.39660050247089    7.65909375614324
H        -1.41842605854124    4.07166866945519    6.06184539461287
H         1.41779393058867    8.23038783728885   11.16487476956974
H        -5.33952270355506    7.07154443056135   11.83157014621165
H        -5.03071205669414    6.86755359340247   13.55415786824337
H        -4.90004210777211    5.49180672601207   12.45303236151785
H        -1.64608189256310   10.05664721520097   10.07344648802218
H        -1.39270582675435   10.52600182634724   11.75337944013478
H        -0.07524057261480    9.81114457783792   10.84418573795914
H        -3.55651093199317   10.12868588098603   11.37411783533664
H        -4.61731299409681    9.21104231129516   12.43213165862729
H        -4.59548338065977    8.87929858049410   10.70083343354643
H        -3.55437241688989    4.90708337102907   14.10906155848803
H        -1.86842464941476    4.41776767588664   14.13914180662186
H        -2.91614419008533    3.87130856268369   12.82707547317066
H         3.38693973761293    6.67746244912943   11.67009962687158
H         3.08281313669062    5.70519655783539   13.11449067904633
H         3.03801039003028    4.94966217547532   11.51695581312156
H        -0.31733784900800    3.32854595379744   12.72878543279500
H         0.36814228109519    4.07726984727495   14.18671226916985
H         1.41787910238279    3.63142310685355   12.84033515253059

