71
CSD_code = DOZVAR | q = 0 | S = 0 | Stoichiometry = C30H38Cl2Hf | MND = 12
Hf        9.59412537740972    8.13174062345655    6.45894377914347
Cl       11.15568827801845    9.84826354178451    6.38743722471545
Cl        7.87714273322266    9.67712667823420    6.61419043501521
C         8.86975647991390    6.08250659782825    5.00260811113875
C         8.36612738689790    7.29104576999729    4.50136535428956
C         6.91650646285467    7.57304083515324    4.23318522865848
C         9.46288419545179    8.14977058196328    4.15986937983967
C        10.68032770244214    7.38650279470645    4.36610014654676
C        10.29381590248056    6.10588685698429    4.90699675162999
C        11.25244690817991    5.09916492165646    5.14185572229410
C        12.58577000992554    5.39475874610156    4.91851946635355
C        13.64478540156468    4.34897639515832    5.14051855889806
C        12.97859531317897    6.67273195053563    4.44756623642243
C        12.04791317392747    7.63842077996253    4.09640362716355
C        12.47070483850922    8.89615058479873    3.38994621086221
C        14.44672942783354    6.97192805715365    4.30461716452106
C        10.80531577249059    3.73698442838629    5.60332716550293
C         9.27724766479529    9.49406376265867    3.50454043961323
C         9.81029246641247    6.43985164017072    7.93765365675783
C         8.62794625275143    7.05900460773572    8.49432153554194
C         9.03430133725166    8.28500823244032    9.13217704358839
C        10.46415033964906    8.38020231217240    9.03452075335099
C        10.92702140385409    7.25902805759767    8.33103333418371
C        12.36553341168446    6.91283332155571    8.06653667991346
C        11.37002292470209    9.38645061896614    9.68083357185125
C         8.05785004509912    9.10942425283197    9.73034785695427
C         6.74441463928048    8.66510487658717    9.76691685890998
C         5.71014632868492    9.47381226390758   10.50195671773583
C         6.34804504188295    7.46857733825654    9.12404817776341
C         7.27718153419959    6.65537801153529    8.49657665497351
C         6.88652046690123    5.34206491962057    7.87118351262862
C         4.89103498346409    7.09541223642309    9.10680663808495
C         8.42540802926490   10.46489655229974   10.26541756697371
H         8.26221347907556    5.21949516510897    5.22162953471156
H         6.56346832289192    8.44214928275627    4.78837343779879
H         6.30930448092507    6.71452379744634    4.51317494943366
H         6.76646103644172    7.76680798362721    3.17071425759071
H        14.34738765481906    4.33663012932604    4.31029676169082
H        14.20566743217930    4.55123405912021    6.05455783833213
H        13.21235521137058    3.35822327329414    5.22649830030689
H        13.37520199194138    8.73048995327049    2.81187551753468
H        12.65498950799009    9.69764707542120    4.10481517040118
H        11.69393974159166    9.21821100814648    2.70519952136097
H        14.63524468258516    8.03263032657141    4.44168951084220
H        15.02367449577902    6.43563696436952    5.05218516746417
H        14.81510791680235    6.68027315144814    3.31993057567511
H        11.30484046088620    3.44805142084319    6.52809153701436
H         9.73315234721091    3.71710311211345    5.77302734811529
H        11.03110240085021    2.98430234078196    4.84815357436721
H        10.02049928568550   10.21345534232852    3.84792844557014
H         8.29068944640075    9.88820873363616    3.74915893163447
H         9.34571593906000    9.41367853809716    2.41651595864606
H         9.91224277841818    5.38963814432909    7.70182234204707
H        12.85728662914647    7.69725182463128    7.48689486390001
H        12.90893082522036    6.79791682441766    9.00563708591379
H        12.43591820950350    5.97872242085423    7.51349788887061
H        12.38046801612763    8.98748249148573    9.73951416837309
H        11.03154291835443    9.61391429793215   10.68933078757641
H        11.41874018084625   10.31586903110134    9.11150611883933
H         5.23434495359061   10.19102148007904    9.83166233792529
H         4.93921339855232    8.83215028844763   10.91819843101851
H         6.16157688324981   10.02175382195715   11.32384316345931
H         6.31632706908833    5.49673052976812    6.95424474083327
H         6.27257100948926    4.76172345082121    8.55788998550485
H         7.76731919042251    4.75201309784607    7.63515062654313
H         4.67630371687308    6.38696625116115    8.31370317123460
H         4.59374442709542    6.64387161079105   10.05445011730009
H         4.27631534600476    7.97627173682079    8.94025958753573
H         7.60771511070991   11.16507380331487   10.11726139511685
H         8.65600371338873   10.42307052547290   11.33089707904969
H         9.28916755518262   10.85299356234372    9.73679820864593

