23
CSD_code = DTBIPT | q = 0 | S = 0 | Stoichiometry = C4H8N6PtS4 | MND = 4
Pt        0.00001002022891    0.00001478206908   -0.00006910002433
S        -0.14452146318202   -1.55018824158914    1.74066062583775
S         0.94995392157824    1.70793785015405    1.27760934623609
C         0.16379730410641   -0.81894953477764    3.25608827316401
C         1.43922260641147    1.14215197791049    2.81594006334449
N        -0.40833370405706   -1.45170393587982    4.30041876297064
N         2.43293489376266    1.86026269624932    3.37735913754252
H        -0.16694379068090   -1.17582268033768    5.23637548961922
N         0.93906463078552    0.19094808395844    3.56548688769073
H        -0.90006634974034   -2.31218558163669    4.13635524312919
H         2.68650952923329    1.68647512361992    4.33436087290715
H         2.76134410342290    2.68498995554354    2.90699376582363
S         0.14456447082798    1.55007929169478   -1.74058068040029
S        -0.94982758839319   -1.70826847525429   -1.27775908580550
C        -0.16378149920747    0.81893768724665   -3.25603732616005
C        -1.43920112852222   -1.14220933883790   -2.81597171514459
N         0.40829170710597    1.45179217096219   -4.30033419900944
N        -0.93907448482664   -0.19093294086147   -3.56545813493705
N        -2.43295352911422   -1.86023747365930   -3.37742489877397
H         0.16695144959991    1.17595440503670   -5.23631485793453
H         0.90008557554905    2.31222895370539   -4.13619950019224
H        -2.68666491238222   -1.68626494149301   -4.33435939897934
H        -2.76136176250573   -2.68500983382407   -2.90713957090301

