73
CSD_code = DUBBAF | q = 0 | S = 0 | Stoichiometry = C35H18F9IrN8OS | MND = 6
Ir       10.41813522272527    9.01380372618260    9.70185130933854
F         7.83683272664333   13.54956817971843    8.71512778208238
F         5.89144541879030   13.01163331403665    9.45493396376461
F         6.24040033529482   13.14013440874206    7.33539862374751
F        11.82649323463891    5.93248301754640    5.49366525283262
F        10.71145115711333    7.25951287477850    4.22440064237572
F        12.84863308076757    7.12533794186962    4.02675693344070
F         2.51357664352253   12.71721867443473   14.12091353932060
F         1.66855880495428   11.19317537832824   12.86040327557816
F         1.92430607904981   10.83039903453087   14.96404001129352
N         9.49795304734614    7.26061160184144    9.27788110832825
N         6.21590791993691   10.43437455834395    8.16825692407948
N         8.41178166944392   10.99394531092834    8.84492554010972
N        11.35161100257179   10.82350750005871    9.85681843982204
N        11.24184444176623    8.11473739342835    7.02166181270510
N        12.82800627529468    9.23274554625476    5.67161559419616
N         9.55528799338487    8.98938854745210   11.66131499557970
N         8.30611886754244    9.41862225355598   11.70286284671438
C        10.07032992247218    6.06976183976612    9.40646891229430
H        11.05338577174323    6.05799892892951    9.85669011961420
C         9.46129035923872    4.90173515661594    8.98340736536514
H         9.96735699556279    3.95739961165297    9.09967561521486
C         8.20442708402061    4.97548888005117    8.40114087127608
H         7.70529912110559    4.08440327481685    8.05314288267422
C         7.60516991975660    6.21480069497032    8.26253459207666
H         6.63542171138595    6.31178258634492    7.80179243208328
C         8.27706932951615    7.34915822681881    8.70404783308427
C         7.79239717413793    8.71571949775341    8.57754422455099
C         6.52785195870011    9.14519684798165    8.20600480434952
H         5.72196809374132    8.46928179875896    7.95228021609244
C         8.74781567491719    9.71462682620712    8.91058863419611
C         7.17506035185013   11.28230636288562    8.48638125613606
C         6.79076467327898   12.74733629697366    8.48958035674155
C        11.22296698842850   11.67948355095667   10.86416150679105
H        10.56170172416012   11.39116940612732   11.66826375661289
C        11.88166247434185   12.89468079899783   10.91074782321869
H        11.73906189998120   13.55335711191901   11.75188832633915
C        12.71599987668376   13.24278083532702    9.85899539906495
H        13.24566317162265   14.18266002906911    9.86210369149981
C        12.84878018696413   12.36287953100933    8.80099761086707
H        13.47999551252004   12.60263645000029    7.96077752594760
C        12.15226738748781   11.15852730834622    8.81846169397603
C        12.17902007956708   10.17318230052652    7.74810298665597
C        12.92155473489892   10.19848447622602    6.57657105617224
H        13.61856092154929   10.98904587868429    6.33129939516096
C        11.31833426556381    9.06038137127740    7.94684358624143
C        11.99459148432262    8.24953155717687    5.94513626514452
C        11.85779915028478    7.14504328881214    4.91860507663875
C        12.32283406579369    7.93416687216038   11.99659914713146
C        13.59769143455693    7.42369471555585   12.37897543315849
H        14.29967545582250    7.24628599875724   11.57762145000678
C        13.92972999207394    7.17134723238317   13.67721643991823
H        14.91022340102378    6.78673549658135   13.91801200411464
C        13.00779000715086    7.40707517114834   14.70628040069884
H        13.27471755762474    7.20654438083175   15.73183899431362
C        11.77033664001375    7.89149146781481   14.39259630297573
H        11.04998865356783    8.07574723665884   15.17883020051591
C        11.38518098997227    8.16704878571855   13.06436417318167
C        10.07721053384168    8.65671840736968   12.82732805617704
C         7.78686150091467    9.45637463854068   12.88221990187203
C         6.44949292385787    9.92380940938134   13.15517764375253
C         5.67958200304804   10.43165798748522   12.10451601882299
H         6.09979425801360   10.45969672800198   11.11276618220506
C         4.40428506372615   10.89871989345430   12.33962512565202
H         3.81474798244277   11.29715042071980   11.52887705597799
C         5.91874334010599    9.89102917664176   14.44465170880776
H         6.51064184009137    9.50188844235885   15.25996241519807
C         4.64078154795637   10.35507214226554   14.68230651156360
H         4.22737613452446   10.32824625051302   15.67867727463055
C         3.88444564548496   10.85454336461931   13.62912922915892
C         2.50473770785661   11.38971416402645   13.88999759700460
O        12.10668125891866    8.13247715873708   10.75855991543920
S         8.90773814103550    8.90052447126614   14.12310640633228

