85
CSD_code = DUBBEJ | q = 0 | S = 0 | Stoichiometry = C40H38AgNOP2S2 | MND = 4
C         7.71459053072128   -1.86747039030243   12.39474925321948
C         9.06941825190163   -2.74947248173453   14.23245893543577
H         8.63602154941709   -3.32802746405977   15.04931645633426
H         9.11689477645409   -1.69894885414875   14.50993322196053
H        10.07988647483486   -3.11386072822520   14.02953714850853
C         7.92714873761302   -4.26268990707937   12.69373143298730
H         8.75379554204053   -4.90334438803639   13.00686832660732
H         7.80878102377852   -4.32099650653167   11.60875572544314
C         6.63817470352960   -4.75242348810947   13.35827115418246
H         5.86240179181908   -3.98561997520123   13.24151476602768
H         6.30306593851284   -5.66783742876096   12.85053652537644
C         9.80805085890313   -1.41592332829242    9.60643662282953
C        10.64827453176458   -1.30895333657017   10.71319458032079
H        10.86649955395800   -0.33015169123678   11.12139332152964
C        11.18207731217911   -2.44362769459713   11.29081422489873
H        11.83616207439663   -2.35377723309108   12.14639879114480
C        10.86709880697759   -3.69358907253465   10.78112040598771
H        11.27544695115491   -4.58329544685035   11.23894529559698
C        10.02108527394258   -3.80313793201593    9.69048314127722
H         9.76682949576959   -4.77807999054469    9.29927658084293
C         9.48816939767472   -2.66969455083171    9.10155637071129
H         8.81490130364540   -2.76118088235583    8.26065670882958
C         8.45479533312713   -0.34024033869043    7.35105473538819
C         7.17208766335015   -0.88177860335431    7.29763293280268
H         6.61082256923182   -1.00674233679991    8.22215737451697
C         6.62024682860806   -1.25627400849759    6.08855009551769
H         5.62733621305243   -1.67978357203242    6.05689659180228
C         7.34116243869487   -1.08095173967665    4.91803370405665
H         6.91103668728846   -1.36906499130597    3.97007024934613
C         8.61096792255286   -0.53119663657992    4.96391751730826
H         9.17121119690825   -0.39046418717949    4.05054720046564
C         9.17026092589588   -0.15923542168651    6.17395740042345
H        10.15874311561433    0.27623629721925    6.19968406950019
C        10.55931963745662    1.09661287978959    8.62455697466752
C        11.74917991943759    0.50602994770209    8.20781144994287
H        11.81086997323609   -0.56943209087983    8.10989522761501
C        12.84922626156841    1.29506445794168    7.92644487326031
H        13.77120539980070    0.83415609407968    7.60209187403723
C        12.77380228501180    2.67290918191899    8.05997573255462
H        13.63743570551613    3.28352752935457    7.84082790854109
C        11.59494749705585    3.26418149773577    8.48270762951694
H        11.53476616637726    4.33682917680897    8.59777583698806
C        10.49282549170137    2.47801830369163    8.76668333685463
H         9.57339323240353    2.92870802693602    9.11719965419279
C         5.77552071246994    2.24734202340813    7.71212734458386
C         4.61348693832512    1.78324650238692    7.10027403132525
H         3.75307748400076    1.53854183553587    7.70870554788759
C         4.56303152916418    1.63821681064016    5.72694297054434
H         3.65620702932474    1.28701879139659    5.25651319393874
C         5.67362272044783    1.93753625895393    4.95434634139686
H         5.63167684046973    1.82497150703054    3.88127666940960
C         6.84136129372149    2.37061556557320    5.56043596112663
H         7.71329066938028    2.58937831489480    4.96187030701554
C         6.89850664454200    2.51575884468015    6.93339906777432
H         7.81520376310548    2.83832687585362    7.40816831523426
C         4.27031234156961    2.93817164261669   10.05121312314727
C         3.78688768038189    2.49379893533444   11.27745651949350
H         4.35878890930703    1.75523586653288   11.83125701240485
C         2.59217625921002    2.98214392424104   11.77380090408205
H         2.21892463846742    2.63366862367449   12.72538564883164
C         1.87349852864943    3.91530052430778   11.04478403315486
H         0.93801604265641    4.29588401781244   11.42744733622983
C         2.35099343445506    4.35906785444954    9.82139420282303
H         1.78727207263232    5.08500195695103    9.25352575506778
C         3.54731043409503    3.87766036962848    9.32287680106373
H         3.91236128423659    4.21985343217525    8.36513421353690
C         6.92561490387111    3.75053859932213    9.84989130893305
C         7.78108912471570    3.69161583129861   10.94595686706270
H         7.82806252799069    2.77473391218684   11.53212538243444
C         8.57167716712802    4.77874985645442   11.27267944829165
H         9.23655265864088    4.72471099671682   12.12158632007861
C         8.51269733020535    5.92989453834971   10.50420806369606
H         9.13160926786899    6.77905593509247   10.75407830195768
C         7.66142113420949    5.99301758879612    9.41193825284035
H         7.61798382281783    6.89077828097179    8.81245993766686
C         6.86511380289906    4.91082748049568    9.08453708162091
H         6.20898246890163    4.96137755504651    8.22751680556212
P         9.05654238636235    0.12988146000138    9.00653237498699
P         5.88788888926545    2.28568388270816    9.52273852836626
S         6.64223575172551   -2.18723638057732   11.11852912467279
S         8.10077548543408   -0.28398405432588   12.85362757166833
Ag        6.93804038990260    0.33520781612767   10.59042134460421
O         6.89352539571926   -5.01158725166761   14.72338154050151
H         6.06776801757160   -5.24991413043640   15.15636908018154
N         8.24967487977608   -2.90349909010712   13.05606600537376

