58
CSD_code = DUBCUY | q = 0 | S = 0 | Stoichiometry = C23H27MoNO6 | MND = 9
Mo        3.87628775510230    3.78398228256871    3.67339524371022
C         4.36673238188007    4.77056506649094    5.26170515153725
O         4.64269158576687    5.35824960162565    6.20815313655519
N         2.72689436210084    2.98289988818597    4.70934402126444
O         1.98884735858202    2.36122085757370    5.38429913295993
C         3.69740176369873    7.03319970681900    3.54986060907401
C         2.85173516903993    5.82812974717088    3.88675069560449
C         2.28183719182237    5.06690468349668    2.82789271277017
C         0.84529500949375    4.59099483631419    2.91117447131916
C        -0.15832507467418    5.68655427979309    2.42279405488614
C        -1.61655956509111    5.15420581171325    2.50877860538691
C        -2.62566982636258    6.26933266285882    2.55520302886515
C        -3.11128037601784    6.72572846320730    3.77491538528680
C        -4.01302670840548    7.77456599137297    3.82538676161475
C        -4.44192553257789    8.37869962020398    2.65579887576860
C        -3.97025337743349    7.92351537258329    1.43626261641111
C        -3.06957292103726    6.87460787582801    1.38616373055552
C         0.65854599759331    3.29155884194222    2.12806656738042
C         0.14479390121221    6.08005556399754    0.98426322927585
O        -0.40194803920579    5.61515072193400    0.01851939394444
O         1.13535262260210    6.97105103189047    0.89763772105525
C         1.47505186688652    7.40188574644290   -0.41283608230511
C        -0.11098476661882    6.88655482041938    3.36344291542827
O        -0.37656342075525    8.02895997963988    2.73158314103302
O         0.07160678155919    6.80688827002914    4.54859307649563
C        -0.49072204507320    9.18878722955833    3.54475463933471
C         4.50777848394177    1.98627869937357    2.31830593919374
C         5.60728185074883    2.33161800686371    3.14799184284939
C         6.04689765225880    3.62477835165244    2.75798917885568
C         5.19506427392697    4.09112106160444    1.74901173511611
C         4.23959496541533    3.07280892091862    1.47263505079238
H         3.04227858306893    7.86612640300187    3.28524927368364
H         4.30489181530172    7.34561785134889    4.39841840003419
H         4.35429078431128    6.83689001972076    2.70105701924730
H         2.21257676145548    5.99430376600562    4.75637913128422
H         2.55765334313371    5.40134208679999    1.82602073222559
H         0.60348390295553    4.41339894961727    3.96700219814107
H        -1.79832123685655    4.53507034070872    1.62959100311406
H        -1.70556082735111    4.54740185229419    3.41063765998888
H        -2.77471712547461    6.26119983334169    4.69095455553075
H        -4.38212254565174    8.11987434778378    4.78051447891688
H        -5.14456313214141    9.19822181369287    2.69507485975292
H        -4.30750967775068    8.38639385037335    0.52023290719686
H        -2.70461156685364    6.51897667830546    0.43432231982452
H        -0.32184545211568    2.85997323887679    2.30372978811371
H         1.40320376265666    2.56524620156127    2.45281928511189
H         0.77099136820033    3.46177700523995    1.05929921203459
H         0.63630165889751    7.93602246743465   -0.86252900303218
H         1.72374716819779    6.54573485419202   -1.04421299411207
H         2.33172674860945    8.06213401580450   -0.30428196687314
H        -0.44173865804168   10.04089682137974    2.87185501883585
H        -1.44758392576567    9.17537065529043    4.07075042550393
H         0.31962396200571    9.22081576255704    4.27534762800198
H         4.04642685041416    1.00678088058344    2.26707919792379
H         6.15527269717645    1.64649583155281    3.78400780178566
H         6.94865925214830    4.11201533045561    3.10890544592373
H         5.35864037786999    4.97496794322511    1.14138244689251
H         3.56114579123590    3.06489720475453    0.62925659293618

