39
CSD_code = DUBDEJ | q = 0 | S = 0 | Stoichiometry = C11H18B9Co | MND = 10
C         7.03540797493529   -0.62055093592688    2.68414501824956
C         7.05100650277666    0.70372586573837    2.18276148249441
C         6.50143111718608    1.56500149318847    3.15368527926086
C         6.25580012476692    0.80198548988120    4.33607774137748
C         6.59336902312023   -0.56529872781143    4.04518962855463
C         6.47018311431097   -1.54151746920222    5.04458188763723
C         6.01583095757517   -1.16531277300635    6.28501180233715
C         5.67973658132292    0.16871227713016    6.56725661924634
C         5.79480146379089    1.15102882963649    5.61400254982634
C         3.24195832240542    0.83393004884620    2.72124966984114
C         3.35847857036413   -0.67326570563594    3.11904721641174
Co        5.11753155120420    0.09059051854798    2.53454308729986
B         3.91787121076732    1.12558313558074    1.22162809486888
B         2.15076141848978    1.06624516876466    1.43591505202210
B         1.79441139464314   -0.08882413455285    2.69905238964171
B         4.11286220798941   -1.61613372097621    1.95125252549604
B         4.47722252339317   -0.48978445399403    0.63968587105266
B         2.93459762470646    0.20540584182954    0.08968466487927
B         1.60221408926156   -0.56464137671337    1.00184231130821
B         2.34715870056523   -1.66941825413689    2.18409295200012
B         3.03084653019684   -1.52829819932131    0.55551180389109
H         7.49019995372647   -1.47614769883936    2.21296138005853
H         7.47576888916599    1.01257809689201    1.24127500673807
H         6.45022241247891    2.63996827256333    3.08567534228998
H         6.73776506148628   -2.56744905506786    4.83734430625686
H         5.92215739252272   -1.90224315808229    7.06920787207360
H         5.33520524152357    0.42107320305282    7.55960194362240
H         5.55034776538512    2.17926923337415    5.84309149570366
H         3.26845236751961    1.56353039682839    3.52873564248372
H         3.47100121315854   -0.89025134179086    4.18147048737208
H         4.41351671727063    2.16868492676422    0.98925290297175
H         1.56214365833865    2.08213147142724    1.38063231434947
H         1.03276727866699    0.09341171626129    3.57496381555488
H         4.71196091336961   -2.57538396257748    2.28205676446321
H         5.38958737806910   -0.61011152898724   -0.09449095816315
H         2.81267724530285    0.54864354539614   -1.02871442741269
H         0.54301273649296   -0.76159983150689    0.53186882047816
H         1.89078465210867   -2.63161207677414    2.68176296682069
H         2.97894811964141   -2.39675512680004   -0.23571332335816

