61
CSD_code = DUBPAT | q = 0 | S = 0 | Stoichiometry = C26H18Cl2N2S12Zn | MND = 4
Zn        2.50711904411654    7.99577557308300    0.99848813699375
S         5.61493016546635   15.43637481777610    4.80231025622200
S         5.82283696982172   14.47425063208811    2.00114048186422
S         7.05080252661784   17.34822516314543    1.10905345228640
S         6.87607520906528   18.29038864755726    3.91855513059345
S         7.69980713425812   21.06541640154556    3.33829577785424
S         7.95216480526698   19.92917965159491    0.00045692710596
Cl        3.06526810748942    7.99561641204530   -1.13284580123927
Cl        0.64881501328870    7.99620356582097    2.20903129953026
N         3.51656087473465    9.69948096566668    1.79064481054386
C         3.16436765612567   10.17367054305665    2.98349622638743
H         2.46110945244101    9.57062968543560    3.53990252655333
C         3.63053063006209   11.37011283386256    3.48430371966992
H         3.29357913580530   11.70712372715060    4.45041736639079
C         4.50984543745354   12.14097294497013    2.71442436341198
C         4.86505060192199   11.63168236317511    1.46090076832975
H         5.53387987066703   12.18319927203223    0.81855467644034
C         4.35250403569341   10.41937901277527    1.04730371335569
H         4.60267218434698   10.00258347030151    0.08180889416295
C         5.02124296553592   13.41600454881930    3.17332138093571
C         4.95138920327882   13.88886100896950    4.43201685052082
H         4.52168836891480   13.35860622759430    5.26200504234000
C         6.08576253648891   15.79438587045727    3.13853734215937
C         6.59915868908665   16.98150806972338    2.77174526690331
C         7.47093088435353   19.03165173462260    1.43170007853862
C         7.37481558520400   19.46201347441775    2.69699624426004
C         7.73815381935519   22.02511890861524    1.78921336797877
H         6.72352969317497   22.09346503352516    1.39662122522595
H         8.08063040761353   23.01566853284812    2.08796564790318
C         8.68043726343735   21.40877620443150    0.77764158923231
H         9.62923525908268   21.13099001602286    1.23676433490570
H         8.86306469262052   22.09244446912547   -0.05129113190922
S         5.61174883383348    0.55378274901578    4.80217594832328
S         5.82161213871980    1.51672929848623    2.00142518608437
S         7.05056010172847   -1.35680336862872    1.10941428374648
S         6.87370936850302   -2.29989946496760    3.91848174815739
S         7.69896990198811   -5.07443804150295    3.33809647346719
S         7.95399994327559   -3.93705079234158    0.00085171674651
N         3.51596475006622    6.29178424047071    1.79082365426689
C         3.16302452689855    5.81732771383435    2.98334943893039
H         2.45937827521154    6.42022345256037    3.53942745360361
C         3.62872144559749    4.62068136032783    3.48409822983378
H         3.29105365162891    4.28338936943296    4.44986487879480
C         4.50843619887244    3.84994377814711    2.71455565585726
C         4.86448339259151    4.35954860991622    1.46139770696470
H         5.53374622955294    3.80819547948698    0.81936297162658
C         4.35227050611319    5.57199009578650    1.04779221192078
H         4.60318915764273    5.98908606888259    0.08262245541810
C         5.01939612672834    2.57472141711485    3.17340461207041
C         4.94867024468489    2.10149982849412    4.43191683832016
H         4.51848088090959    2.63155458536485    5.26177845849695
C         6.08381576761511    0.19629468434828    3.13864143870087
C         6.59758815352882   -0.99067455759828    2.77187470089379
C         7.47106148284517   -3.04016087793188    1.43192443772696
C         7.37397287123205   -3.47095234315554    2.69699962502714
C         7.73922701692893   -6.03363740344174    1.78874489337909
H         6.72502220812079   -6.10225578796434    1.39513631057900
H         8.08182302537473   -7.02415234367592    2.08748491261542
C         8.68221014163916   -5.41655261532207    0.77828171540790
H         9.63039507003399   -5.13844676321780    1.23846216649706
H         8.86601036528828   -6.09988815400962   -0.05067008891163

