49
CSD_code = DUBVEC | q = 0 | S = 0 | Stoichiometry = C14H27N3O4Os | MND = 6
Os        0.64298728086203   13.66128901980067    1.43518732287881
N         2.42646220760179   13.91464866340468    0.64429091961494
C         3.30062852388936   12.75201191489709    0.74127409890067
C         2.90561860003187   12.00277994716181    2.02291390455021
C         3.53459147124184   12.63935248028978    3.27065877641195
C         5.02647166326749   12.86943106215776    3.07161330692471
C         5.23464799560227   13.87891131285167    1.94984045575558
C         4.70995194681255   13.35191538059027    0.61246611158109
C         4.44114794723897   14.51781265670004   -0.34332292819248
C         3.01143440964367   14.93629565739936    0.01852486777508
O         2.50309961833407   16.01767539555995   -0.23010887568156
N        -0.70858860183898   15.60115714849195    0.69799773611218
C        -0.24190138300688   16.81611954168324    1.35915668600348
C        -2.09622670869447   15.28933224932295    1.05581453008064
C        -2.22372921304094   14.62333678268724    2.42727230701968
N        -1.54498892726088   13.32543302229772    2.48763494372879
C        -2.30779354799260   12.28790841511715    1.80392860258075
C        -1.33239521631751   12.93101690850248    3.87705260535098
C        -0.59497099072482   15.77450649160441   -0.74874361867782
O         1.51248436106126   11.99185877218407    2.11008358362585
O         0.91288334266824   14.53807455872981    2.76523729473627
O        -0.01504813128653   12.98444704269194    0.12533739114536
H         3.09124761706539   12.09268172999807   -0.11855602428305
H         3.22554812526900   10.94970548820616    1.94908917978381
H         3.02504384121383   13.59066849665577    3.44832602696670
H         3.34637394138550   11.98954893138817    4.12657769016307
H         5.46882030636278   13.24781682584158    3.99494009116289
H         5.51789599883405   11.92535689995834    2.82260913114007
H         4.69556197960592   14.79388013596850    2.20428260926532
H         6.29369786571561   14.12567534431982    1.84632420964508
H         5.40902120104103   12.61979751739854    0.20078192661153
H         5.13579610454397   15.34814711700351   -0.23000651688580
H         4.44339630319107   14.19810664894843   -1.38737822772577
H         0.77507308197935   17.01574226167659    1.02678581243841
H        -0.88463000847098   17.67146634314259    1.11130307391838
H        -0.22481061751008   16.67700949262091    2.43773831949231
H        -2.70493906661091   16.20821832406893    1.05189458711468
H        -2.49663697960295   14.61741983272014    0.29421538209791
H        -1.77047978255937   15.27152287353123    3.17973851931811
H        -3.29300454577844   14.50891881960312    2.67059002097017
H        -1.77709818977118   11.34279366599400    1.89554459235893
H        -2.38978792334840   12.51592168080894    0.74405347881221
H        -3.31363703110074   12.18528411832275    2.23494848436743
H        -0.81574778447342   11.97380641201260    3.89799823230951
H        -0.69731732910664   13.66592075443506    4.36903448302069
H        -2.28391107740767   12.84718510325193    4.41955586418471
H        -0.82272512422740   14.83326614315492   -1.24675420852278
H        -1.27705217309840   16.55538933724075   -1.10895347077291
H         0.43083461876730   16.05093527760196   -0.98409328917656

