67
CSD_code = DUBVEB | q = 0 | S = 0 | Stoichiometry = C30H30N2S4W | MND = 9
W         2.43832928400118    1.74142436732304    3.02975217526653
S         0.34744945774807    2.72260637866260    2.61114720210906
S         1.73898500687813    2.05145974946565    5.30237656659408
S         1.77814565316215    0.37450721404169    1.00228636719103
S         2.39965444552778   -0.67979688639821    3.57265175190855
N         4.57590711641705    3.94282107111438    4.96897054873907
N         1.62510142257268   -2.24581941043340    1.54044444192892
C        -0.01960932618032    3.60275684242574    4.03863401576156
C         0.59828998407980    3.35996520033088    5.21905767636595
C         4.31828209512333    3.23752827471958    3.83709996373156
C         3.57341982346586    3.74457915073772    2.72290073799584
C         3.73918361283643    2.87176934389464    1.59042773237908
C         4.44719887163774    1.71758043303091    2.07501244022199
C         4.73945128180634    1.91308231217255    3.46697881057186
C         1.91141563555698   -1.01752738415395    1.96896746365875
C         3.81473478475862    5.15564208088637    5.19671547776426
C         5.07959691634125    3.29163615512643    6.15751591248397
C         1.16320669450038   -2.49923766608615    0.19910199602243
C         1.73772128394586   -3.40467191039333    2.38955042068234
C         0.32869139319845    4.10704603666481    6.44621878200546
C         0.48156173054912    3.49994190211526    7.69187186632840
C         0.23598358282113    4.20541515540642    8.85324272159555
C        -0.15813487037398    5.53199469400508    8.79335879728145
C        -0.30165229835085    6.14913707427281    7.56147585883779
C        -0.06000863028248    5.44663375808505    6.39674884719320
C         3.37374211359601    3.17200204507711    0.21047423558646
C         2.36428067604320    4.09503494401590   -0.07463881197797
C         2.00227170215338    4.36206010521720   -1.37943204196627
C         2.63943083625099    3.71913403373862   -2.42851283494804
C         3.64162825600287    2.80271277383656   -2.15962239516939
C         4.00783053188913    2.53131751053457   -0.85560196411661
C         5.55389219168840    0.93125930481042    4.21115112742272
C         5.03946537750609    0.22755886757383    5.29857382150544
C         5.80423976065404   -0.73128284718130    5.93523888883066
C         7.08887200081419   -1.00543252559243    5.49504408646126
C         7.60547586948440   -0.31722389668367    4.41050570241508
C         6.84258795442939    0.64110888945709    3.76828461486942
H        -0.81585097756571    4.32452626411627    3.93857832728835
H         3.20592661378611    4.75872092420035    2.64458394552286
H         4.87760081722432    0.92526468447937    1.47428420991221
H         0.78750735263897    2.46544031996601    7.73549414253228
H         0.35181328261661    3.71810083058039    9.81039976143722
H        -0.34932926911404    6.08399839637792    9.70174743407425
H        -0.60062064667974    7.18605566135434    7.50800236819071
H        -0.15819049417054    5.94117178291288    5.44146807006715
H         1.83810834147814    4.57902426274790    0.73524555164876
H         1.21268159576306    5.07148130614413   -1.58041077682867
H         2.35277710893602    3.92775636322974   -3.44864846431444
H         4.14183760248191    2.29491463202954   -2.97190571860288
H         4.79555850968513    1.81875522049078   -0.66044561129275
H         4.03151812622656    0.42964726834919    5.63395213747105
H         5.39180101992754   -1.27334387233638    6.77313746514572
H         7.68363180109478   -1.75758321296283    5.99204056346110
H         8.60505852402919   -0.52987133729058    4.05995923995097
H         7.24480357560978    1.17896884219047    2.92124343189370
H         4.01489260547100    5.87544639325115    4.40214168350451
H         2.73815413245935    4.96179145702604    5.24117483833014
H         4.12325086413856    5.59526041520101    6.14172334881951
H         4.29578134537428    2.73564093080059    6.68090148447092
H         5.88199287052475    2.60884883017893    5.88956873197215
H         5.48078897010481    4.05132427938781    6.82694995804860
H         1.04747549733857   -1.55637586943442   -0.33041483694750
H         1.88413204500048   -3.12423569850067   -0.33281315123226
H         0.20248967388857   -3.01745510820835    0.23072296199425
H         0.76160485403760   -3.88293786516784    2.49942103075720
H         2.10394725959544   -3.10752347766629    3.36925373381817
H         2.43323477584825   -4.12113576527801    1.94707113535472

