43
CSD_code = DUCBOS | q = 0 | S = 0 | Stoichiometry = C13H10LaN9O10 | MND = 10
La        1.66783267965912    2.06666508984361    1.68500564590307
N        -0.27847544641866    3.25147749351783    2.85380671408816
C        -1.42958850111021    2.63400981791375    3.08980014941516
H        -1.46691954292879    1.58460954249594    2.82228217499858
C        -2.52833227238903    3.26612403404593    3.66110747901095
H        -3.44067570789750    2.71618854977776    3.83001708105933
C        -2.42753644749784    4.60396077043240    4.00524446764112
H        -3.26151718928965    5.12891129782613    4.44675338233389
C        -1.22673913468311    5.25373744026610    3.77661947065271
H        -1.07692763283665    6.29059995432316    4.02983022503123
C        -0.17787719103193    4.54028120908868    3.20173021632276
N         2.10618228270943    4.45852923887495    2.46351309382897
C         1.11911333687646    5.20167878666362    2.96873776494994
N         1.22745498235015    6.47913089184565    3.28167323902299
C         2.43014267774394    7.02957823331730    3.06273796859449
N         3.47929340472550    6.36394418370911    2.56483939672306
C         3.26859503700761    5.09313924160281    2.27817289518659
N         4.12668053122851    3.04736397876783    1.38609138558529
C         4.38350774231443    4.32199512786437    1.70596805904465
C         5.62454342178005    4.91628992465754    1.50343972322215
H         5.76253105222776    5.94765968669901    1.78328318921743
C         6.63858169946189    4.15778088929499    0.94332204719722
H         7.61360651578230    4.58818160076109    0.77043992656156
C         6.37387066097249    2.84075501392619    0.60757615426016
H         7.13044232340292    2.21324891947522    0.16515210738477
C         5.10476080264845    2.32978347267168    0.84706472101715
H         4.86061040172661    1.30290592440122    0.59575711222043
N         2.59172098717887    8.31763336970265    3.36174969629389
H         3.48109946499676    8.75364768942531    3.19492288899080
H         1.81564108676705    8.84150371801649    3.72496899484410
O         1.69924066601550    3.52251826564540   -0.04475270564130
N         2.50727029800973    2.77168363959031   -0.59977737398130
O         3.29659259512076    3.18120272816923   -1.39512712332254
O         2.45769399392197    1.56975628022695   -0.30017969672665
O         0.69172487269513   -0.23801348886972    1.05216901262744
N         0.23888170402019    0.47201712880536    0.03581830113449
O         0.28116721981634   -0.06646669010036   -1.01847221101079
O        -0.22782545432741    1.56402802484297    0.26783230181509
O         3.22482818529491    0.59149443601761    2.22409385027460
O         2.60163943724286    1.98707142104850    3.68820019550679
N         3.48784005530200    1.25025739533689    3.23385848311389
O         4.56399718246842    1.18844155775500    3.75178657695297
O         0.46522721890445    0.41629421053778    2.23744301870197

