100
CSD_code = DUCCAG | q = 1 | S = 0 | Stoichiometry = C50H40CuN2O5P2(1+) | MND = 4
Cu        1.14445225634424    2.87983442035014    4.98396282948941
P         0.44454573511901    1.67111393112145    3.16544364228295
P         3.06474796557904    4.03427206204398    4.63519452484941
N         1.27832905036486    1.41148934731643    6.42514353818284
N        -0.17835201259716    3.61509071542843    6.30540900218541
O         0.46673838517426   -3.21954259335759    8.08335638064125
O        -1.03248443489234   -1.97074615748129    9.19325557732090
O        -2.84332620501484    3.99786438737532   10.45191431267144
O        -3.09521051084508    6.04042838207911    9.55414926601830
O         3.13778221183273    1.59237203652380    3.36925116005746
C        -0.67355615098943    4.84418441140422    6.33003972608225
H        -0.41202274251829    5.48006511293213    5.49525736317366
C        -1.47762094458999    5.30198726283482    7.35542516601491
H        -1.88073182615837    6.30189489775583    7.36137069310399
C        -1.76971506936175    4.43393631202367    8.40759652333854
C        -1.23713101383392    3.15140901643340    8.38997180424345
H        -1.42776096271471    2.47792181637206    9.20883984957631
C        -0.43934104359808    2.77215496428974    7.31416004414514
C         0.20237827724308    1.45483578076022    7.22008925793004
C        -0.26080791120647    0.32346761072972    7.88502281629242
H        -1.14728396661672    0.35343334615336    8.49650905485674
C         0.42632171745342   -0.87212882799702    7.71497748707285
C         1.56512762108378   -0.89274729851034    6.91057540595374
H         2.11435105817780   -1.81170236285695    6.78659793382049
C         1.94581769863814    0.27713794467680    6.28273464809900
H         2.81709655470683    0.31917562330935    5.64481388651803
C        -2.63946054350213    4.92770557282735    9.52015856112772
C        -3.66216973839413    4.38692428380351   11.55065406313360
H        -3.71554423351210    3.52485737990126   12.20974536333947
H        -4.65698384568436    4.66609092473050   11.19933243658371
H        -3.21994313157057    5.24054313134066   12.06709379242477
C        -0.02585892407752   -2.15173624432661    8.33962331832894
C        -1.52426964319169   -3.14348894671236    9.83500619589446
H        -2.32157579433957   -2.81619842464186   10.49651544978885
H        -0.72647097244063   -3.62566824480420   10.40232316222988
H        -1.90337803141724   -3.84902950776690    9.09361845204024
C        -1.19512417934664    2.00395473484359    2.45177287093197
C        -1.85388467878265    1.08135625506750    1.64269710698791
H        -1.39303224210141    0.12589403891794    1.43183908249152
C        -3.09627837901515    1.39046133520388    1.12112208657991
H        -3.60606879772993    0.67725211109593    0.49094446617692
C        -3.68914489162874    2.61147705151755    1.40589455025773
H        -4.65925740873034    2.84669269571846    0.99558879947324
C        -3.04306687455497    3.52589838471355    2.22141060584001
H        -3.50986637209662    4.47234318212387    2.44998898087322
C        -1.79934995611839    3.22128648710073    2.74526200326600
H        -1.28762072384879    3.92014736718908    3.39603120286033
C         0.27989789001901   -0.08420415944358    3.61120966056849
C        -0.78894485526609   -0.41119140022094    4.44457366009199
H        -1.49655622187486    0.35998029812421    4.72524614191212
C        -0.94649018234217   -1.70601286027220    4.89732662091648
H        -1.78323892289694   -1.95691173630836    5.53273388718017
C        -0.03102651239585   -2.68281913331228    4.53566745529237
H        -0.14778058183505   -3.69197266387103    4.89856392703484
C         1.03447916239849   -2.35987546852588    3.71226376458097
H         1.74298477563657   -3.12244945608367    3.42548119522792
C         1.19521450672880   -1.06466901154380    3.25008827056945
H         2.02240634469188   -0.81923657965937    2.59971514340971
C         1.53337393333235    1.66462470105271    1.70816256388709
C         1.14217521094218    1.78602358745320    0.38404932403291
H         0.09276945515804    1.81441292889953    0.13180679433028
C         2.10211422999060    1.87920548733106   -0.61014932657848
H         1.79749427358295    1.96335945108526   -1.64145548642496
C         3.44738393627675    1.87825232041955   -0.28492795317902
H         4.19064110374027    1.96346737987046   -1.06222014920091
C         3.85751110272183    1.77882277728134    1.03536535777803
H         4.90660823166465    1.80416751662140    1.28925755069197
C         2.89831578268083    1.66804339092110    2.02492485719464
C         4.54758853722247    2.97455415746013    4.64468422185241
C         4.39805549640600    1.80369849546586    3.89460157142944
C         5.43159265993262    0.89085812471388    3.78505806592754
H         5.29932716144181   -0.01315755335829    3.20905467766591
C         6.62957216037585    1.15509649891322    4.43263975257711
H         7.44414886675093    0.45264424697683    4.34906691550367
C         6.78236026909488    2.30570196945302    5.18856816695031
H         7.71767933423312    2.49660591530199    5.69164578586910
C         5.74407101614174    3.21622339100029    5.30361428961832
H         5.86287755345029    4.11281010574748    5.89462852173861
C         3.15419336205944    4.67108399470759    2.93286195104116
C         4.36681346165792    4.95908012706315    2.31212117761992
H         5.29336295023731    4.84594016951021    2.85891281001919
C         4.37929166091181    5.38562083374743    0.99702490224655
H         5.31920773901723    5.61080806778941    0.51594993973856
C         3.19154882803182    5.52052778925816    0.29507360180639
H         3.20907990957008    5.84739231294033   -0.73317437664057
C         1.98349124278015    5.23649394722062    0.91002481414936
H         1.05828078209477    5.33926379175738    0.36355021088103
C         1.96530291281209    4.81286361884813    2.22582195738118
H         1.02859864792892    4.57467665786614    2.71757491830336
C         3.56022840411680    5.42228918160753    5.69593989646713
C         3.91146785092376    6.68221040205121    5.22777321973299
H         3.93288167126295    6.88065488988531    4.16568511827519
C         4.23574095214546    7.68037485208012    6.13084071934586
H         4.51539627495233    8.65824031155995    5.76887448227745
C         4.20223858922628    7.43015020735634    7.49282270839506
H         4.45757087432766    8.21290470133204    8.19050205356548
C         3.83363670758676    6.17833561691611    7.96294191033896
H         3.80018681513335    5.98722798661133    9.02517929603067
C         3.50390078539703    5.17947249275154    7.06792867403098
H         3.20337948574296    4.19746961677809    7.41524034210449

