65
CSD_code = DUCFAI | q = 0 | S = 0 | Stoichiometry = C26H28O4P2S4Ti | MND = 12
Ti        0.90850563544660   -0.60329511683316    4.07389409229642
S        -1.49642550421543   -3.99532688188041    5.15002701270716
S        -2.77579305083541   -0.81309637816830    5.25563745158167
S        -0.96535742884902    2.96301018519588    2.48407487907371
S        -3.02232500213261    0.61174178344075    3.81621475420876
P        -1.77798332128010   -2.37181549133064    4.10933769283121
P        -1.26831506174469    1.86591066645341    4.06568797041131
O        -0.49298575659137   -1.68224078625613    3.59070636051751
O        -0.15241013709286    0.86879628097930    4.45714373239289
C         2.70832739784877   -1.67497215607499    5.38934810610804
C         1.45141217002618   -2.27723353828385    5.60189470346053
C         0.60228745515015   -1.32383801964487    6.22692337942362
C         1.33806325822392   -0.12689835251755    6.37686682528434
C         2.61681926016156   -0.33033084872759    5.82849368588415
C         3.97212360370274   -2.40109517959152    5.04039205633147
C         1.27899206227947   -1.20251074118707    1.68989722052719
C         2.46344835067080   -1.30408105868277    2.45311887295424
C         2.80435524678697   -0.00769308815760    2.92315845100804
C         1.79763013946216    0.88209075209236    2.49512230384612
C         0.85225193496517    0.14157678793164    1.74856279276556
C         0.66909617634555   -2.31188748533202    0.88948319016369
C        -2.85952494640419   -2.53171252282117    2.65889915080573
C        -3.87959752249635   -3.46836472124194    2.68977109864971
C        -4.73926345407574   -3.59950024885573    1.61626986020159
C        -4.58267145184840   -2.78080415465203    0.49886846839590
C        -3.55165128048904   -1.83496350737341    0.47839570860311
C        -2.69879411097633   -1.70739920374594    1.54961555898978
O        -5.36182798124827   -2.82244539571247   -0.60668865856774
C        -6.43420449881249   -3.73523636489029   -0.65101987017053
C        -1.63465308436128    2.78115459068461    5.59607976617726
C        -1.64830167027594    2.13137662435097    6.82104968547305
C        -1.95328286105556    2.82706958988183    7.97584025564692
C        -2.25266361060499    4.18663803412483    7.91027536358828
C        -2.23973508679826    4.83291615376019    6.66948856959758
C        -1.93778810887658    4.13501379079464    5.52320745604477
O        -2.56535182435243    4.96282741117172    8.97484659493279
C        -2.62545953951015    4.37432064101534   10.25349624650190
H         1.21970031040470   -3.32867659141083    5.47562683595139
H        -0.36606032848818   -1.54211744354060    6.66244890984685
H         1.01298059973466    0.76591538010361    6.89683010317031
H         3.44213524149892    0.36696123907421    5.89974936738284
H         3.75850718540669   -3.32908920599850    4.51285423754613
H         4.64974753379681   -1.79186010728824    4.44447213797533
H         4.49125957791884   -2.65996123465852    5.96623107265649
H         3.10314841171124   -2.17661695439100    2.46960986572164
H         3.75405581504564    0.28344309087105    3.35313224274493
H         1.80319382096824    1.96051924993687    2.60251709989342
H         0.01610888851301    0.57120651503745    1.21282955913934
H         0.05784915300560   -1.90974185443323    0.08367759768550
H         1.45412146526856   -2.93397226766615    0.45939639416457
H         0.03581106763850   -2.95316935696682    1.50969413720293
H        -3.98958743870260   -4.10099902003508    3.55893183737177
H        -5.52445044354167   -4.33705225901741    1.66143297680092
H        -3.45091995771751   -1.20672614729856   -0.39227650016985
H        -1.90755186311527   -0.97120984016134    1.53784252195126
H        -7.15761942268945   -3.54254195962466    0.14696065592141
H        -6.08350835738937   -4.76981997536393   -0.58497028256570
H        -6.91254614074912   -3.57825900447743   -1.61627863355776
H        -1.43277136563179    1.07318899396582    6.87368562253172
H        -1.96058646194464    2.29915023493679    8.91630285888353
H        -2.47563955709029    5.88460517314527    6.63766559766006
H        -1.92851452479630    4.62712753499206    4.56165324663411
H        -2.90604073706076    5.17759520122316   10.93258427542761
H        -3.38103067988456    3.58395547540153   10.29605500925464
H        -1.65463818826486    3.96884308374370   10.55516046407111

