28
CSD_code = DUCGIR | q = 0 | S = 0 | Stoichiometry = C6H12CuN9 | MND = 5
Cu        1.98793264811889    1.89752457033392    0.04191375136009
N         1.92291925431065    3.83718519086076    0.21491540080873
N         0.36538560935393    1.26910138578503   -1.55716130804802
N         3.03836033763574    2.16375498398406   -1.49601222111929
C         1.46812328134146    4.46435620075342    1.20558565431083
C        -0.82610509279078    0.88614866634933   -1.52277517256029
C         1.19325106496470    1.08749261017852   -2.71686407222933
C         2.25669309620353    2.18401474524837   -2.71453344675184
C         3.73853181795700    3.39761014586132   -1.26020235857549
C         2.75486869382171    4.47705727133070   -0.77039006461174
N         0.90989577808117    1.67907807419496    1.51336144528300
N         0.33823158158586    0.71072616012270    1.85310099279618
N        -0.29381243837921   -0.12387423851929    2.27733873663308
N         2.68719277192782    0.21079184133216    0.23147554445546
N         2.78411506525144   -0.63268193861851   -0.57363962845589
N         2.91126247170911   -1.52814266273325   -1.25296926342455
H         1.67494106780268    5.52084672959365    1.36743798944487
H         0.85753607678371    3.93400646530556    1.92075438957562
H        -1.39263905574669    1.03124182406250   -0.61508056008103
H        -1.33408662201880    0.40221122642103   -2.36064581993867
H         0.61520132903549    1.10411121484400   -3.65026634395609
H         1.68475805866807    0.11197828851439   -2.63764338193780
H         2.94476638251009    2.01456225447957   -3.55390697412052
H         1.74753832569800    3.14898968086844   -2.88558726720747
H         4.24860043454102    3.72763564283867   -2.17187239969400
H         4.48975255221304    3.21434664707083   -0.48674314484885
H         3.24614556042560    5.37476042065634   -0.37589736070573
H         2.11083994899005    4.77556659887047   -1.60469311640955

