75
CSD_code = DUCGUD | q = 1 | S = 0 | Stoichiometry = C30H37CoN4O2P(1+) | MND = 6
Co        1.94650693950341    3.53455514166478    3.19114671566575
P        -0.29373687656691    4.29931625196250    3.31462574939988
O         3.12930137094698    6.05882319073298    3.68063318460146
O         2.29942965790998    4.75285188370692    5.61840956775030
N         2.66396746898926    5.18310960317827    2.78374299585897
N         1.99758076797555    3.66758393803810    5.01778663263320
N         1.36485761837425    1.76273484119673    3.55545158307144
N         1.92100203350653    3.36102253455890    1.27268864376260
C         3.35455676678254    6.76644393818299    1.04170667999282
C         2.76969575341778    5.48302562822285    1.52554744670831
C         2.30376080933552    4.43055489366709    0.65388821863720
C         2.31087041931942    4.60486260817974   -0.82900186372239
C         1.51553961518580    2.19443069683495    0.53049498119513
C         1.84767568480688    0.91354219898069    1.28982607817160
C         1.04280659481254    0.75202975187481    2.57510274359252
C         0.96779187832478    0.15943495529311    5.40340055405230
C         1.31862692012102    1.49208239224201    4.82580750370542
C         1.66547515834212    2.58849008665701    5.67723268270450
C         1.65198068880966    2.54915143347747    7.17038040845620
C         3.85304770032394    2.93893198051800    3.30842623619979
C        -1.30126854565473    3.86899897388504    1.84785732276826
C        -2.32560278014561    2.93341391781062    1.78931176009998
C        -2.99823789562802    2.71283656067418    0.59737117861633
C        -2.66044559332373    3.42103843021329   -0.54222770090744
C        -1.65457455074924    4.37419705128340   -0.48584714015105
C        -0.98194824791402    4.59570233350811    0.69946560605912
C        -0.81107592910442    6.05578362363343    3.41047039493581
C        -2.17932758944863    6.31125311216053    3.29736844038533
C        -2.65444072436863    7.60502393447610    3.36878916538656
C        -1.77426790479684    8.66102358407282    3.55421906686834
C        -0.41971025219030    8.41209970527702    3.67756757924851
C         0.06417627795347    7.11463649833013    3.60835472661640
C        -1.14408263654416    3.64887585733965    4.79079460611586
C        -1.50933088680429    2.30983669570832    4.90902224395636
C        -2.08723928349212    1.84112646540036    6.07554909025927
C        -2.27703805434906    2.69323149935165    7.15052756904541
C        -1.87621525034790    4.01624727581471    7.05713246009388
C        -1.30906148474603    4.49144748608074    5.88946790417044
H         3.78534807595518    7.30758271183127    1.88017851431233
H         4.13241539900993    6.58028270625512    0.30427039120591
H         2.58621883162252    7.39017033821658    0.58512013467464
H         1.38457033244973    4.23556238303851   -1.26491826043693
H         2.43280017241583    5.64924439524941   -1.09575039160660
H         3.13779214353867    4.04459302385065   -1.26782599455011
H         2.02213899528727    2.16091766422358   -0.43887054045309
H         0.43416662466886    2.24538315382275    0.34941424141748
H         2.91143200717405    0.90169108821422    1.52657322858534
H         1.63220850916073    0.06362785942708    0.64135269625618
H         1.24191884327705   -0.24591866925951    2.97624012736399
H        -0.02639917610271    0.82029048386114    2.33168223507991
H         0.08464660838411   -0.26462465937423    4.93193264426857
H         1.79710640484519   -0.53343884089848    5.25345974227291
H         0.78634039757531    0.24364285372342    6.46907204027281
H         1.97496520545190    3.51745292622934    7.54575595666036
H         0.64967423038679    2.34635207765868    7.54510585454107
H         2.33021995355171    1.78372906070936    7.54303578718314
H         3.92873615553944    1.93824556339879    3.72746536471132
H         4.31822964982716    2.93955420435487    2.32462482398353
H         4.42493308784503    3.60888911797006    3.94841440776915
H        -2.63383921689421    2.39470160371643    2.67115190513972
H        -3.79745078412322    1.98787404843444    0.56551720738307
H        -3.18787302133134    3.24411853063121   -1.46647651329665
H        -1.40548246740827    4.95030256630678   -1.36460599523889
H        -0.21253824294461    5.35552525143680    0.75411840815353
H        -2.87049557708318    5.49116266809733    3.15904723038191
H        -3.71409592124531    7.79088947070978    3.28154684601167
H        -2.14738823950307    9.67199273993186    3.60813046240000
H         0.27052579689322    9.22711690339986    3.83347257990889
H         1.12092553965524    6.95105960481407    3.72888834161563
H        -1.34708909129571    1.62625450824442    4.08943033514504
H        -2.38622835373445    0.80583829698491    6.14748942958086
H        -2.72627904095232    2.32494838943057    8.05990592949023
H        -2.00276797285252    4.68110906859135    7.89758964608171
H        -0.99102756673042    5.52199054704742    5.83214701775174
H         2.88139606907815    5.64963540554524    4.62312314999662

