63
CSD_code = DUCPIB | q = 0 | S = 0 | Stoichiometry = C24H26N4O4S4Zn | MND = 4
C         2.40490265328172    4.85805569043046    7.80781015968904
N        -1.68663949354605   -0.40221838819047    5.42206409971438
O        -1.48786958833665    2.49505481456867    5.92325430808532
S         4.03967440960189    4.32313181614389    8.21879954180001
H         3.65093446273220    3.20928335488267    8.83776890977901
Zn       -0.14926632413786    0.95176229424098    5.38481032887647
C         2.23451599749429    6.08333995761992    7.16244997736557
H        -4.73715921923021   -1.14503710819807    5.18568741141207
N        -3.75579965773176   -1.09116560944362    5.40607400795614
O        -0.18004660724869    1.48902694845056    7.35466382253891
S         3.66116051112971    7.05729690893685    6.78009786276466
H         2.98536089175643    8.06351751240693    6.22532914389628
C         0.95540292107854    6.50571370487668    6.83610070063697
H         0.82058786906137    7.45833129770647    6.34308310789674
C        -0.14113902251582    5.71623645646469    7.12903999100337
H        -1.12834308167236    6.04827987392711    6.84660397801563
C         0.02155302301145    4.49789317087511    7.77235467704762
C         1.30133105060522    4.08328714209338    8.11494306215295
H         1.42909373270394    3.12816725812979    8.60184819457703
C        -1.13496139224690    3.57805830838104    8.02826591599342
H        -2.08378633370159    4.07449405329417    7.83199351858619
H        -1.10696973331195    3.18135411227871    9.04326518163829
C        -0.93611398026648    2.43309430883152    7.03485982666413
C        -1.80031089117499   -1.44740478991376    6.28980432179916
H        -0.95398305795185   -1.79553050968614    6.84444163428145
C        -3.08456890022087   -1.89124613825648    6.29331856443786
H        -3.56651321321200   -2.68103303863338    6.83056318880296
C        -2.87722710644788   -0.19892258815506    4.90264633210022
C        -3.22329317294273    0.84461261945902    3.91889963718110
H        -3.21839335159125    1.81377712357485    4.41760818536812
H        -4.19781395670425    0.65933129860844    3.47260225167010
H        -2.44737562563362    0.87970529486476    3.15829716668247
C        -2.70484058735214    4.86594751844465    2.97648153063892
N         1.39192873337852   -0.39799106162882    5.35004653856722
O         1.18519725020941    2.49715412575333    4.84414542798479
S        -4.34338471650431    4.33329642627727    2.57798874423849
H        -3.96132309062851    3.21388411319770    1.96489974891964
C        -2.52735066511708    6.09403186422612    3.61479305924633
H         4.44434909322025   -1.13195145641032    5.58919208817498
N         3.46291479206224   -1.08137272029515    5.36837744630679
O        -0.12146141252699    1.48733115270118    3.41443150537174
S        -3.94910288553296    7.07287729008798    4.00219543913048
H        -3.26744892903708    8.07978617309266    4.54903919357605
C        -1.24507588844128    6.51485870850980    3.93076945902470
H        -1.10513857390368    7.46924080230322    4.41877713942159
C        -0.15231881771751    5.72138048916391    3.63442909838719
H         0.83746857262313    6.05230148880984    3.90896810975160
C        -0.32211792025241    4.50039856888175    2.99793025083051
C        -1.60511998694552    4.08717323440341    2.66576708333830
H        -1.73809034526658    3.13030334599339    2.18381262154180
C         0.83054494305445    3.57684469277145    2.73781858595166
H         1.78159846336859    4.07088205480898    2.92940381748380
H         0.79693977556507    3.17951079150642    1.72321644447860
C         0.63310361149495    2.43307374902883    3.73279133695023
C         1.50872715561772   -1.44486308168640    4.48474595297827
H         0.66354573992783   -1.79664760237763    3.93065493893891
C         2.79416771569794   -1.88526384771257    4.48269928666778
H         3.27839544404352   -2.67499991379887    3.94743956437243
C         2.58178504343175   -0.19032459327264    5.86945403874650
C         2.92469659831237    0.85614577143892    6.85113000840491
H         2.91823253527473    1.82431407935515    6.35052277588105
H         3.89918403912644    0.67405990180505    7.29877190702652
H         2.14795050007137    0.89137078426173    7.61085784722410

