47
CSD_code = DUCPAT | q = 0 | S = 0 | Stoichiometry = C14H26O6Zn | MND = 4
C         3.52341097046894    1.69632082241873   -0.37716299862102
H         3.88211946141635    1.46140240306734   -1.38122832147062
H         3.56215525130849    2.77989044527866   -0.24317012824571
C         2.08879081968083    1.20849640374816   -0.20164773015965
H         1.44360867912069    1.70152751666264   -0.93165011527242
H         2.04600117489749    0.13302268320695   -0.38791802736546
C         1.59546124365283    1.49833208632392    1.21223344145633
H         1.59126108820015    2.57745581994018    1.37985504870301
H         0.57231120158234    1.13587108543256    1.33097007616489
C         2.50695100164665    0.83114620043559    2.23732431092033
H         2.46882332199748   -0.25269336008074    2.10386924439256
H         2.15894853324781    1.05610667750455    3.24730134878187
C         3.94498804677544    1.31274579849836    2.07157843650189
H         4.00436631740298    2.38604294776128    2.25880603025120
H         4.59304099170443    0.81399102889430    2.79494881837961
C         4.44479972935197    1.03439799072999    0.65705698194123
H         4.46940105852802   -0.04267911259236    0.46381884317705
C         5.84328372706343    1.57188788476924    0.43369782575965
O         6.33256663336933    2.42194652583255    1.20964042050698
O         6.49275657737073    1.18094306728713   -0.56388655958053
O         7.04734395305865    3.68487091364254   -1.71040342965178
Zn        7.95220555740068    2.46492497802557   -0.00000429478360
H         6.41773773973915    3.03659999873927   -2.04780113228295
H         7.78398907762927    3.68771690321905   -2.33259504403342
C        12.38102434918876    3.23293229553824    0.37712873658432
H        12.02238188746332    3.46771215933117    1.38125391644259
H        12.34209642867168    2.14939220868884    0.24291814222424
C        13.81572171580101    3.72055461047765    0.20167975849515
H        14.46083057292496    3.22726395083777    0.93156684157336
H        13.85868332080346    4.79599098281394    0.38814641659708
C        14.30898046114910    3.43090876493150   -1.21226350612598
H        14.31296517242588    2.35181441782893   -1.38009811673005
H        15.33219292186498    3.79322222906067   -1.33094322877962
C        13.39758131420543    4.09845511510951   -2.23719982474788
H        13.43586737508613    5.18226025730105   -2.10350216242325
H        13.74552881574810    3.87364080351101   -3.24722594932253
C        11.95947004101841    3.61705424725565   -2.07153301634928
H        11.89992747619942    2.54379672169603   -2.25894498613953
H        11.31147791154216    4.11603801808690   -2.79480636765195
C        11.45972988826561    3.89521794744167   -0.65694857130328
H        11.43529253935743    4.97226519145847   -0.46349218089784
C        10.06118360671362    3.35786825021805   -0.43369194684765
O         9.57188632653412    2.50778289782895   -1.20959301590963
O         9.41163294399838    3.74897515942779    0.56379764240402
O         8.85729761608972    1.24480458170225    1.71015803673856
H         9.48699335262719    1.89300007283064    2.04751616587805
H         8.12073180571231    1.24198140787830    2.33244417081924

