49
CSD_code = DUCPEX | q = 0 | S = 0 | Stoichiometry = C16H18Cl4NiO10 | MND = 6
C         3.54994648104096    0.56520371115884    3.72818013727438
H         3.05776666099068   -0.27845684858938    4.18656988580974
C         4.77620824024686    2.73332988923916    2.53846068376215
C         4.26155989272955    0.39563862512887    2.55231406646048
H         4.33230399067503   -0.59194159154349    2.12640498198601
C         3.45745301937888    1.82087892416541    4.30473895308751
C         4.06790959701099    2.91422457958189    3.71049208406591
H         4.00519654488708    3.89239127908785    4.15801532972274
C         7.04457351625626   -0.44791112923852    1.48073125509933
C         4.89213317316932    1.47282487953344    1.93583436567485
C         6.12779361871691    0.16917219479411    0.39357568733617
H         6.73093588525096    0.36805762792518   -0.49583379757293
H         5.35507440066676   -0.56285838893166    0.13038748151711
Cl        2.58716381503548    2.02843958850637    5.78057787334358
Cl        5.56234962462328    4.07477916331152    1.80226614300661
H         8.69593367092865   -2.50119596884322    4.01769935815853
H         6.23572607231799   -1.19203525148549    5.81541927686775
H         8.47557242435506   -1.89694021309360    2.58023566522035
H         5.43732928841900   -0.41738871924756    4.73176935895904
Ni        8.00617615548230    0.00261435981424    4.12806618308456
O         8.97191476417119   -1.78048232615595    3.44287433968647
O         7.48863388633026   -1.57987956955549    1.29583644053097
O         6.08500923866163   -1.12229038068993    4.86705242227328
O         7.25577368079421    0.30804987923648    2.46566560559255
O         5.59407619397000    1.40988855634868    0.77899655170952
C        12.46088839016834   -0.57230648480983    4.52731383742431
H        12.95438901946290    0.26909071264086    4.06617010185813
C        11.23083670512847   -2.73448840811066    5.72377119005935
C        11.74948143399705   -0.39772214870327    5.70259984687017
H        11.68018857837158    0.59143079822201    6.12513776550255
C        12.55163545996844   -1.83002603842008    3.95492628093635
C        11.93908543540666   -2.92040257302220    4.55249810397084
H        12.00026232676398   -3.90012004709902    4.10814395661902
C         8.96811383988577    0.45413661985196    6.77516033948284
C        11.11727339911098   -1.47193850874716    6.32257388436421
C         9.88516186985276   -0.16191210272522    7.86251659319440
H         9.28267864339833   -0.35745036843635    8.75310318595835
H        10.65964159187260    0.56919300712229    8.12303744814974
Cl       13.42236849246941   -2.04398062531514    2.48025922697963
Cl       10.44186300154152   -4.07209050314040    6.46390248278439
H         7.31292365014555    2.50432355087671    4.23742462063769
H         9.78103093594189    1.18883875111937    2.43923496471712
H         7.53769929846167    1.90178779116908    5.67562349400343
H        10.57499508799790    0.41451951645779    3.52603783646728
O         7.03900529396119    1.78428088802256    4.81420912544319
O         8.52431272579738    1.58632532828412    6.95918490533239
O         9.93002070488351    1.12164344040367    3.38818268761867
O         8.75639821183472   -0.30265021025961    5.79099555355566
O        10.41603206275849   -1.40459526023594    7.47956223619651

