63
CSD_code = DUCPOH | q = 0 | S = 0 | Stoichiometry = C28H26CdCl2N6 | MND = 6
C         8.33330415913973   -2.44299359192313    2.81645728712637
H         8.74472767324495   -3.31848238605146    3.28932876733257
C         8.62987594170336   -1.14015706297902    3.31831885896446
C        10.03624018138157   -2.09957794813419    5.06935591551303
H         9.27111510167982   -2.83581486945064    5.31508946014892
H        10.46254734957396   -1.73584622233503    6.00251124907937
H        10.82969598174757   -2.58575116642418    4.49035593738656
C        10.06263758439521    0.30211892128279    4.67450029728762
H         9.69170379659201    1.06979078274150    3.99987388320475
H        11.14846916456541    0.23505740068213    4.56721790539282
H         9.83180804489344    0.59530198184327    5.70097479805686
C         7.55536289352000   -2.57270551360361    1.70702300767690
H         7.34039240086788   -3.55046341221464    1.29655549608693
C         7.04876814563109   -1.42600657288713    1.05980404531085
C         7.34738575963754   -0.18052055998739    1.65304206147498
C         6.28368006302438   -1.49139058702853   -0.13208352973805
H         6.06847284516229   -2.46609634788521   -0.54753625942497
C         5.84880430639943   -0.36343045886844   -0.74794911188391
H         5.28173802709365   -0.41281637161242   -1.66603352541758
C         6.13908675811867    0.91542938367685   -0.19998926886081
C         6.86279423648382    1.01542234356581    1.01245327734864
C         6.75843987285622    3.30577049665438    0.98564650137676
H         7.01768162434175    4.23075204815733    1.48591066780878
C         5.73298299012343    2.11547903718229   -0.81091448966630
H         5.17148345172973    2.07516944403433   -1.73407752795268
C         6.05908541412924    3.31375686638662   -0.22772096748528
H         5.77132366615208    4.25130337195888   -0.67632212539116
Cd        7.11994913718085    2.21320326665825    3.93924638440546
Cl        9.08755520408879    3.55005047772317    4.14775717377537
N         9.46616224482935   -0.97652048081187    4.36513907211628
N         8.09442005264044   -0.05662139413960    2.75708770274580
N         7.13458464628342    2.19869140233362    1.58100563064354
C         5.90676280328297   -2.44295176156697    5.06192125615551
H         5.49524199663686   -3.31842617878244    4.58911143942431
C         5.61026186713187   -1.14012557187112    4.55998961215592
C         4.20377871982197   -2.09947586220772    2.80898784555100
H         4.96889904106409   -2.83568056915460    2.56313617286757
H         3.77739795177787   -1.73564663224617    1.87589583726559
H         3.41038504559842   -2.58568730059775    3.38803530165797
C         4.17744226461785    0.30217847914067    3.20391483864663
H         4.54850379889746    1.06986896617529    3.87844230262327
H         3.09160417340223    0.23523435599296    3.31135598249148
H         4.40815894855923    0.59535006715550    2.17740597187287
C         6.68467410367567   -2.57267556666207    6.17137836600791
H         6.89968648584226   -3.55044328025701    6.58179588666422
C         7.19118271486914   -1.42598162104503    6.81866390617132
C         6.89252075945577   -0.18048912654379    6.22545635004245
C         7.95617552244235   -1.49133708777246    8.01061087365400
H         8.17167639732087   -2.46604304559616    8.42589215055397
C         8.39098415523713   -0.36337144238892    8.62651450018914
H         8.95814647313074   -0.41277183558016    9.54453818614950
C         8.10096639070984    0.91549541647892    8.07838472552345
C         7.37727703881191    1.01546855571022    6.86592260939753
C         7.48097604972278    3.30583629012906    6.89308548544046
H         7.22257994721629    4.23080995091192    6.39231228461790
C         8.50716476335330    2.11555108575844    8.68921943676338
H         9.06817253585867    2.07526895448113    9.61270339088359
C         8.18074263437873    3.31381677166393    8.10621650029283
H         8.46861353584175    4.25136646121294    8.55475349310399
Cl        5.15216185071950    3.55017983204086    3.73058168948618
N         4.77393202814483   -0.97647235260241    3.51321041437102
N         6.14557807411447   -0.05658461629103    5.12135989371338
N         7.10527320918277    2.19873638574158    6.29747472182937

