53
CSD_code = DUCPUN | q = 0 | S = 0 | Stoichiometry = C24H22N4O2Zn | MND = 4
C         2.75982034904068    7.98891886559435    3.18792546183747
C         2.46361306608236    6.63428804505100    2.86308853418758
C         3.23443854053392    5.96775676840220    1.89226717815758
H         2.98882265759306    4.94040395498568    1.65725484581086
C         4.27033025271913    6.58981686905632    1.24836140588482
H         4.84759755899956    6.06702278742816    0.50133834528499
C         4.58071304875994    7.91369943983019    1.57486686403354
H         5.40328880411200    8.40548403885526    1.07528747178011
C         3.85549099605183    8.58999783266433    2.51866956918487
H         4.09719165960409    9.61064836782556    2.77646444159025
C         1.44297448027926    5.91154398635510    3.53565462808985
H         1.39157890301553    4.84108159179620    3.29071952333924
C        -0.21022521387364    5.42434827887779    5.12368783759324
H        -1.21679656013892    5.83109932390910    5.19816571673069
H        -0.23137331068381    4.45707684577719    4.59839519007365
C         0.34482059176987    5.25836970954473    6.50102444265205
C        -0.13715364426154    5.64763521758872    7.72471882614692
H        -1.06194789428824    6.15614966468575    7.90685646999811
C         0.80505670530246    5.25149870465035    8.69433500789192
H         0.72750098797830    5.40044311570700    9.75303754083390
C         1.83549037736134    4.64182876322293    8.03386225822511
H         2.74029852300412    4.20455843981984    8.40782389787584
N         0.61885475073120    6.37509697001915    4.40728311600815
N         1.54797603641865    4.64690281604310    6.70643455776399
H         2.14627532810782    4.29194980064477    5.97894976445210
O         2.10180608936070    8.67513213780357    4.05764655422343
Zn        0.42279679073932    8.36620510840935    4.86079762073868
C        -1.91338876332514    8.74410356088862    6.53484766316780
C        -1.61770091090532   10.09923941704045    6.85803857590718
C        -2.38849714139577   10.76651186095174    7.82837555884062
H        -2.14318110404880   11.79419762674893    8.06224199781371
C        -3.42403279090699   10.14477969922164    8.47316762428656
H        -4.00127583297119   10.66814711427388    9.21980874200354
C        -3.73413467709090    8.82049991236726    8.14801479877630
H        -4.55649514612068    8.32899105979610    8.64821900346700
C        -3.00884910364644    8.14343714161518    7.20481039862132
H        -3.25035432375375    7.12248232268459    6.94804531232238
C        -0.59771063073695   10.82173607580158    6.18422689197876
H        -0.54652726208434   11.89243083067171    6.42818892637696
C         1.05449140195899   11.30802957501238    4.59486262415196
H         2.06122621590273   10.90163669170979    4.52056375616726
H         1.07536189126619   12.27589042887041    5.11907381623337
C         0.49895238261420   11.47219025043768    3.21752098333272
C         0.98060621310590   11.08153817990968    1.99413822834614
H         1.90551600833100   10.57309553445246    1.81230946923173
C         0.03792085048807   11.47620350562306    1.02437645864304
H         0.11512771468320   11.32598931720201   -0.03417104481810
C        -0.99243668556998   12.08642365483824    1.68446307848693
H        -1.89749233064171   12.52299762514338    1.31028843547151
N         0.22604191700493   10.35768853063724    5.31252220206227
N        -0.70444991224063   12.08305858123324    3.01179117931509
H        -1.30258352724656   12.43874572378610    3.73905582042669
O        -1.25517432698887    8.05709833453520    5.66590242899759

