50
CSD_code = DUCRAU | q = 0 | S = 0 | Stoichiometry = C15H27Br2N4OTc | MND = 6
Tc       -0.05555522698272    9.29228240591777    3.49077845962221
Br       -1.67641420180351    8.46542585333662    5.39552773114381
Br        1.97388725833457    9.96402297638777    2.00436462735711
N        -1.29941286812640    9.67276887862654    2.33734164150930
O        -2.16340243540310    9.91324228406750    1.58758114765080
C        -0.06948273140154   11.16062678875323    4.21493030756987
N        -0.07728685549600   12.26275201983151    4.57655612747372
C        -0.06898893489276   13.62479295890194    4.93257006743744
C        -0.47253134019628   14.42879393345873    3.69331550517157
C         1.35303547359321   13.98126711608961    5.37510784004637
C        -1.07100732785037   13.82615479308161    6.07236114192977
C         0.05115957348785    7.39637826436333    2.85335452195894
N         0.05064156163802    6.28279758275365    2.52803498390361
C        -0.04625738790284    4.92232233404294    2.17884461756522
C         0.62146206718821    4.11193567924407    3.29389012305147
C         0.67101930874738    4.71810415903251    0.84236233008803
C        -1.53423356111417    4.57711992572436    2.06822237849104
C         1.27716501762598    8.76057186878879    4.95992296315445
N         1.85914078846641    8.36159299793750    5.87816367042262
C         2.39289677314768    7.81990470447621    7.06287362730492
C         2.35690666694176    6.29546657183356    6.92204784240054
C         3.82600674671836    8.32955764821553    7.22390352166430
C         1.49684807577699    8.28262353178061    8.21549203379880
H        -0.46515537741652   15.49016364114445    3.92609783505673
H        -1.47161399598267   14.14828387569025    3.36675900697055
H         0.22308699320265   14.24214723849190    2.87798644520869
H         1.40406934840372   15.03661632421800    5.62857424647350
H         2.06087568081286   13.77716835482595    4.57452416023827
H         1.63848673693877   13.39772778236085    6.24808819854290
H        -1.08455974118298   14.87131158031096    6.36931024431385
H        -0.79731113238010   13.22007952712571    6.93349785495627
H        -2.07086102539084   13.53870635344071    5.75478711924827
H         0.55681575617370    3.05177014522005    3.06510286132573
H         0.12498264127864    4.29626309713525    4.24442433741800
H         1.67026743771197    4.38626748600233    3.38790019044763
H         0.61196171311619    3.67328297262491    0.54964669480431
H         1.71800909713076    5.00232133510865    0.92341338443533
H         0.20949468488166    5.32577958749788    0.06725138720083
H        -1.65031026232749    3.52572743461314    1.81958220082390
H        -2.00591130566443    5.17525135472454    1.29166041253508
H        -2.04076580447503    4.77478265028852    3.01065238213891
H         2.75740984353881    5.83586040249412    7.82133146909986
H         2.95366234357317    5.97627739814555    6.06991505959571
H         1.33273252170821    5.95669692246848    6.78101102573444
H         4.25604148125308    7.92794954051082    8.13732149362406
H         3.84075947238626    9.41597656877160    7.27921171776891
H         4.43973428663073    8.01934939912410    6.38085734023388
H         1.82552520492615    7.82238359436148    9.14305103195458
H         0.46263688012381    8.00102531173622    8.02659419898781
H         1.54364008053008    9.36392484492662    8.32450049013173

