45
CSD_code = DUCSUP | q = 0 | S = 0 | Stoichiometry = C21H19FeNO3 | MND = 6
Fe        4.93360365544556   13.56213514035006    2.80114727480719
N         4.87256684288838   14.13625936329901    1.29978960526339
O         2.57346912009783   11.83944619274875    3.17388826732823
O         4.68498853066599   14.57632228574941    0.23030646525157
O         4.08845303591423   15.70885360278343    4.63738561763977
C         3.50572437824776   12.48820354701860    3.02437710626730
C         4.44237507469777   14.87621675798660    3.93552900839972
C         6.39476263153418   12.17323787840661    2.82626397486656
C         6.11779175111763   12.54722352013357    4.17844183006794
C         6.87510274387937   13.44009938368463    3.34129026780374
C         6.96203052100707   11.03934834422819    2.03020998108451
C         8.12709044096405   10.44126790003342    2.83228376895676
C         7.47524442940821   11.57958801431308    0.69175424741621
C         5.88737093659029    9.97664048383145    1.78346904579340
C         8.42594347392080   15.11115302680291    2.38198142003591
C         9.63479071420956   15.77953947538114    2.39821580688792
C        10.55483606784990   15.53087628143563    3.40441927641662
C        10.25891138118958   14.60961934813263    4.39601213507931
C         9.05047785220240   13.93921095829971    4.38896123254692
C         8.12106668699935   14.18196333215327    3.37586459021360
C         5.70341900535165   10.73436880421859    5.80988051253661
C         5.68737709545666   10.27010667694153    7.11066417636892
C         6.02487014457387   11.11409706618493    8.15694876954527
C         6.37243378700822   12.43091291956176    7.89753853499759
C         6.39104577963270   12.90206537321321    6.59985529288109
C         6.06950659385124   12.05379221859123    5.53652864654860
H         8.56417724055107    9.60939890658760    2.28449435074925
H         7.78509125541218   10.07946794212082    3.79961836862576
H         8.89817681524620   11.19122395519689    2.99767342936554
H         7.90088107200372   10.77504744782242    0.09658583656913
H         8.24190278781083   12.33449622126099    0.85519298965462
H         6.66012621982679   12.03097152823382    0.12936931424418
H         6.29565061562612    9.15714055050666    1.19658331504425
H         5.04851662937070   10.40914117425714    1.24112531093616
H         5.51628584575609    9.57534494654325    2.72360821712583
H         7.70033663389045   15.30648084002977    1.60468367295592
H         9.86151535382368   16.49760827657161    1.62372224695152
H        11.49867043602412   16.05502990852006    3.41716099771551
H        10.97414438627609   14.41151967639759    5.18141720881753
H         8.82390300393865   13.21358414766037    5.15749455841621
H         5.42719684521703   10.08098059283611    4.99499484376923
H         5.40709646905478    9.24639996050187    7.31154846091723
H         6.00962161209612   10.74872521036317    9.17282039612730
H         6.62616007234295   13.09279763692559    8.71260963091879
H         6.64959403102762   13.93099318218243    6.39378999609124

