43
CSD_code = DUCVEC | q = 0 | S = 0 | Stoichiometry = C13H10N9O10Y | MND = 9
Y         1.38887733216774    3.15333460219078    2.55882029171289
O         0.77958793621801    5.07897252886263    1.81910676100056
N         0.28973283899317    5.42848132995109    2.91442404553616
O         0.16137052953435    4.54589174441472    3.77461854091658
O        -0.06638959542215    6.55125169106295    3.10002495063875
O         1.27854457740260    0.54755049410994    2.12457482475896
N         1.76260824209331    0.05299413512348    3.12283581060426
O         1.65282331170664    0.74167112544222    4.27870899385565
O         2.31714425564122   -0.99178733987815    3.21258463581921
O         2.91291062101764    4.06089702119362    3.73179016019910
N         3.74675818465293    3.20226385538165    3.42218101730643
O         3.34305235610585    2.22045859466882    2.77488385544557
O         4.89783761912843    3.31944585913983    3.70454087857651
O         0.93903122646819    1.91009831851922    4.15092005022600
N         1.24417520746572    2.57104016393603    0.30388366356146
C         2.28117081021185    2.60183435156526   -0.54144396890685
N         2.30549896902378    1.99243611416658   -1.71029871534531
C         1.19022215333562    1.33088311889217   -2.04637481388216
N         0.07710143615476    1.30615179074632   -1.29673755147467
C         0.16003063245915    1.91961410336247   -0.13484120138075
N         1.17520621621343    0.67840213342330   -3.20606932181075
H         0.35578741322516    0.16029135336881   -3.46965049045305
H         2.00366891096442    0.66477783685867   -3.77438151631120
C        -1.00649648165904    1.89365003468165    0.76452542737317
C        -2.17981393968976    1.24256305814308    0.39814923704135
H        -2.23797233529459    0.77062585610864   -0.56901614494241
N        -0.85388380691109    2.50441126443253    1.94668825285610
C        -3.06897240304345    1.83774758270800    2.52776828861849
H        -3.85844814689580    1.83352949144600    3.26246700303362
C        -3.23192337941651    1.21793311599566    1.29943571569817
H        -4.15647205811168    0.71932499421020    1.04913406528161
C        -1.86227284821440    2.46955653852296    2.80812647258416
H        -1.68538490075218    2.95967861316602    3.75858003781813
C         3.44181981113272    3.41269738366989   -0.14617211317913
N         3.30109160141703    4.12780252876513    0.97556657940598
C         4.28742180071453    4.94017856956963    1.32258458025305
H         4.12458483871774    5.54529126956680    2.20577943051661
C         5.47414783981551    5.04311431499638    0.60488466231259
H         6.25033781856106    5.71080391353755    0.94220834429314
C         5.63575541755241    4.26769050589385   -0.53078905277619
H         6.55066891530124    4.30756178371414   -1.10271275133179
C         4.59204979442778    3.44733585935102   -0.92762887556052
H         4.64391127778009    2.83664839485990   -1.81398005998123

