32
CSD_code = DUDHUF | q = 0 | S = 0 | Stoichiometry = C12H15Br2O2Re | MND = 9
Re        4.22055773720681    9.81816668389752    9.38571387060550
Br        6.86171160094385    9.96058616842567    8.85490588695276
Br        1.80613000507695    9.64795683320508    8.21536894353243
C         4.47330700674524    8.28881723848699    8.20373265225289
C         4.30047415916858   11.29471718728544    8.11545185448329
O         4.61862365823849    7.36416459589963    7.55630210428687
O         4.34182563992497   12.19197164390911    7.41665010861276
C         3.06039583850363    9.08092854852373   11.33095844871218
C         4.40982212792083    8.71929902327028   11.53249124873868
C         5.17554109116542    9.93215103137368   11.64358163671289
C         4.29025209415404   11.05270801089922   11.46102875658207
C         2.98563875057905   10.54448705106275   11.28634001437444
C         1.86675710343502    8.19738558867021   11.42595970392359
C         4.94492058140136    7.35413339264910   11.83199297266752
C         6.57440957237180   10.01882722822699   12.12470308289375
C         4.68473814945181   12.48040952508850   11.67430389933176
C         1.70740960793069   11.30565647289593   11.32919807343581
H         1.39329176028619    8.33504399228082   12.39982751581076
H         2.13716465614438    7.14962379782674   11.31675536645955
H         1.13118478558960    8.44691262151221   10.66098470133151
H         5.02860029093411    7.21999954824301   12.91207343691925
H         5.93422267372077    7.21800154774097   11.39712698366006
H         4.29004652423841    6.57900493698117   11.43954315492845
H         6.56636782819945   10.05341258810666   13.21688398692798
H         7.06878532301093   10.91585298519974   11.75845182938192
H         7.15857890572307    9.15518407913161   11.81473840401445
H         4.75492356367038   12.68776692666413   12.74371116390258
H         3.95488990490237   13.16041509016156   11.23992623853186
H         5.65520416032586   12.68858801711960   11.22557694477410
H         1.24838119794963   11.18428571806453   12.31209861133600
H         1.00307469581475   10.93269221028864   10.58536223350928
H         1.86936900527145   12.36624971690877   11.15075617041300

