25
CSD_code = DUDLIX | q = 0 | S = 0 | Stoichiometry = C8H10ClNO3PtS | MND = 4
Pt        1.36357276657531    1.39413945187902    0.98258409414330
Cl        2.80478620508431    0.96222472914196   -0.66093068970253
S         2.97819250733587    0.53945590828711    2.30673121323956
N        -0.07422718282709    1.86408788065854    2.33023047610702
O         2.71104729699665    0.48666942784352    3.74111870500001
O        -0.00964918396031    2.14126765536385   -0.30138509179298
O        -2.04135056666851    3.03751329677282   -0.36292175390656
C         3.47623506088103   -1.12985410335287    1.80012402679732
C         4.56583720025880    1.39240939547070    2.09782847062373
C        -1.10025423406966    2.56116539083151    0.23083944262777
C        -1.15351812213168    2.41167166094691    1.75166442960844
C        -2.25747962539504    2.81914968443722    2.48303186481111
C        -2.24949818817336    2.65418309015620    3.85779318866564
C        -1.13037627975132    2.08301266501781    4.44684473532505
C        -0.06291592819367    1.70178115072861    3.65117591738337
H        -3.08794552484182    3.25282315654996    1.94799532439921
H        -3.09292214860875    2.96185159222034    4.45684432783219
H        -1.07791836312709    1.93176111488204    5.51304001186785
H         0.82544801070551    1.25546042936095    4.07987038658820
H         3.76735129272485   -1.07918007093651    0.75727103472289
H         2.62141737824115   -1.78650185061050    1.92539520962820
H         4.29137970979720   -1.45413744476591    2.43678860344566
H         4.82459308349555    1.34685761923478    1.04632038215148
H         5.30380915882694    0.90181330858234    2.72205785473753
H         4.43638567682588    2.42247486129874    2.41368783569638

