98
CSD_code = DUDTIG | q = 0 | S = 0 | Stoichiometry = C41H43B9NP2RhS | MND = 8
Rh       15.56316341159766   13.32345194926606   10.26785743584292
P        15.17158705841523   12.19461853898070   12.24778765719094
P        15.96448934361684   11.47559922881271    8.94823281138187
C        15.69407135054052   13.01180390493139   13.81352542951771
C        14.87948870766349   14.04599756548476   14.27261397443401
H        13.98169499781587   14.29154638206561   13.72340230290166
C        15.20886264224016   14.74834017540962   15.41528802798126
H        14.56752655068476   15.54603218801853   15.75994150884495
C        16.36150783232098   14.43179876374146   16.11715744828816
H        16.62127376020015   14.97995295468678   17.01070689639065
C        17.17574968202281   13.40601649798745   15.66946205188505
H        18.07106686796914   13.14826261452103   16.21747475908182
C        16.84780811264605   12.70049548482968   14.52379218722687
H        17.49107986375840   11.89902519711293   14.19066225062216
C        13.50735725796457   11.72704171689018   12.88020568161036
C        13.36184403654463   11.17447875540795   14.15127561775473
H        14.23502981745096   11.01195927473300   14.76842171996345
C        12.10893602562969   10.84320909455866   14.63040390444176
H        12.00757022081479   10.40988743987184   15.61517680036226
C        10.98297434788615   11.07165457941796   13.85441734232176
H        10.00467264443501   10.81318625102073   14.23262837195126
C        11.11685013981601   11.64393074866478   12.60186974253038
H        10.24208716215247   11.84149165845572   11.99968947527853
C        12.37290027232895   11.97113005036105   12.11958474902256
H        12.47186054422992   12.43751088478069   11.15018360498131
C        16.08829123196052   10.61352996375496   12.40731017324287
C        15.54363170289773    9.39012622103166   12.77184005300371
H        14.49386128942797    9.30828164701260   13.00869987507672
C        16.34069779011618    8.25899720266368   12.81628863349091
H        15.90522545540425    7.31278654097796   13.10299519374549
C        17.68379349947313    8.33062511563516   12.49088102589826
H        18.29816620603573    7.44289360333349   12.52348093365259
C        18.23461423409043    9.54495523586398   12.11436167971029
H        19.28004152799333    9.61080281803409   11.84857035311035
C        17.43952616588822   10.67282068364120   12.07356365201358
H        17.85983443693609   11.62612367818896   11.78165552374032
C        17.68148700304532   11.01824891102715    8.48885835291062
C        17.95886709958184   10.06514703583379    7.51134582222749
H        17.14570069458024    9.57409627871703    6.99462471848478
C        19.26785052554371    9.75895398902988    7.18943317132453
H        19.47494654927062    9.01567486925080    6.43291516980623
C        20.31537622803209   10.40482789505467    7.82853889647640
H        21.33617799638052   10.16156070795120    7.57219230424185
C        20.04798392268350   11.36977214233509    8.78378767917040
H        20.85788097361953   11.89003810869449    9.27512386638972
C        18.73702054182663   11.67241912159134    9.10609551833547
H        18.51509977763650   12.43615297839285    9.83604393017960
C        15.28749887495920   11.54770221518806    7.24124197315507
C        14.02545637155001   11.07350256269872    6.90526108733020
H        13.42063987030549   10.56896297324503    7.64356990862777
C        13.53583557113227   11.23327212544312    5.62078702974041
H        12.55410549740832   10.85601497296421    5.37279174640192
C        14.29442394874216   11.87482747893959    4.65744135146974
H        13.90844459578574   12.00071142321833    3.65656741652039
C        15.54940263922487   12.36074990438497    4.98659114931529
H        16.14442669078862   12.87090341872040    4.24315805838531
C        16.03908228729603   12.20329686047539    6.26811680805723
H        17.01213562266771   12.59697805961700    6.52342649467483
C        15.27884153549797    9.85437670524046    9.47245660438067
C        15.96463257456414    8.64788513130907    9.49595080802174
H        17.00382821232115    8.60277921767397    9.20732717674288
C        15.32436494546126    7.49170085641352    9.90859403073340
H        15.86778022594244    6.55775840320259    9.91840874277617
C        14.00033118591273    7.52454627564478   10.30977744096585
H        13.50695056608343    6.61752393358391   10.62709572566172
C        13.31662070242136    8.72949436198457   10.31884143176408
H        12.28920967036484    8.77139630021827   10.65141344902129
C        13.95637164400362    9.88263498268326    9.90922317616626
H        13.43660772514129   10.83108664292220    9.93208701122567
S        13.26960515025229   14.12145274926898    9.30978220786282
B        16.77958026456236   15.02272287349380   10.28602615624850
B        16.23946826968583   14.98994811867075    8.66053255846973
H        17.03493031307764   14.77170594499072    7.80165944089042
B        14.53389030506492   14.81400655388947    8.09113869876002
H        14.30418210671776   14.41863225787155    7.00148626020041
B        13.67716404867375   15.35862729648554   10.67403382276258
H        12.83297756957970   15.36083202713982   11.50186235669669
B        15.41441448086300   15.50592855692413   11.17471642944651
H        15.56371819074937   15.78289275068652   12.32309299291023
B        16.22311596564514   16.52424124060848    9.74437504729911
H        17.01652021085210   17.39864100437442    9.83205564863350
B        14.53664986463897   16.76606803394677   10.15882533471040
H        14.27197078464764   17.81664475183661   10.62989720756744
B        13.46230380840251   16.04598031242152    8.97148758939621
H        12.46066975827480   16.49431862954393    8.54549018703125
B        15.08883187648441   16.40940153850318    8.43043443870205
H        15.25522616426130   17.17289519276631    7.54419364790005
N        18.16143221219119   14.83132212236708   10.77182522596268
C        18.43481695753822   14.54488237483101   12.07267778716930
H        17.57782961384474   14.47034091409023   12.72326023389951
C        19.70447575517556   14.33999444614387   12.54075880582958
H        19.84645507460680   14.10583654202018   13.58394463860928
C        20.79394960437016   14.43859787154503   11.67374712976455
H        21.80134212178286   14.27535256950803   12.01833759648842
C        20.52337229777802   14.77184786140192   10.34972137851967
H        21.32419246448669   14.88614641399629    9.63574754429087
C        19.22951909231858   14.97129012890303    9.93966474248814
H        18.99557721322595   15.22768746769545    8.91952799215775

