67
CSD_code = DUDTIH | q = 0 | S = 0 | Stoichiometry = C37H21N8Sc | MND = 9
Sc        9.08438820781225    3.68424626067445   11.46701831301539
N        10.62493927979757    2.74288112854601   12.55499298794993
N        12.14808999492910    4.58765996851322   12.78688585993914
N        10.62375826394566    5.03743487867635   10.98344242204510
N         9.65238503966970    6.08688436420900    9.05128273615048
N         8.54948419109935    3.99000828691308    9.45598252044202
N         7.15226664154786    2.06553164620807    9.10788621391021
N         8.55208842287925    1.69467712542224   11.02662585478527
N         9.65974771354516    0.55940240487340   12.83282799099276
C        10.50847218135786    1.51869367572637   13.14229715009390
C        11.52226630995317    1.37981305721399   14.17443910901674
C        11.83449694856530    0.35962889029171   15.05758319497589
H        11.26530574415009   -0.55632683165925   15.05921330050223
C        12.89258734332141    0.56302566441300   15.92753943060663
H        13.16039103916056   -0.21186024759960   16.63084090950911
C        13.62304439051024    1.74914105116358   15.91531752831741
H        14.44136941726489    1.86961623634871   16.61007602376990
C        13.32076402649269    2.77200347833473   15.03212690514543
H        13.88269629239383    3.69224684767901   15.01419086059905
C        12.26127167903339    2.57815247096868   14.16145624851703
C        11.67290551999915    3.40506809447776   13.12125816893276
C        11.67657752835385    5.32294044759405   11.80005073058851
C        12.27532933397519    6.58294254396706   11.39310631076695
C        13.34480839457041    7.31751768030814   11.87774496093282
H        13.90651816112823    6.96924812852442   12.72983885094147
C        13.65710679848708    8.50193009382744   11.23187761843469
H        14.48372481964264    9.10014156475769   11.58632560981767
C        12.92654332169378    8.94063170037164   10.12978617785119
H        13.20232655687250    9.86958309679044    9.65246245703558
C        11.85842771680628    8.21030393330914    9.63650571326473
H        11.28952830536779    8.54171658054753    8.78243015410685
C        11.53637231414730    7.02668466866596   10.27975636058433
C        10.51135801685064    6.02291978493649   10.04837750119095
C         8.76329271140290    5.15331380293764    8.77853879731140
C         7.87359137947681    5.21353469522245    7.63116769639132
C         7.67884784846515    6.15965873622713    6.63847687688057
H         8.25473405046206    7.07135443393072    6.63081178836550
C         6.72561216889522    5.89024183354750    5.67089896959573
H         6.54705671296533    6.60877444029616    4.88437822901317
C         5.98879382470580    4.70800598540973    5.68880206620183
H         5.25421113872250    4.53477189615749    4.91600715803072
C         6.18051338268626    3.75480738012406    6.67473192680758
H         5.61613138035725    2.83614579716368    6.69507925073517
C         7.12915975451073    4.01840575314932    7.64892599925511
C         7.59164201439965    3.27065773027659    8.80591227898334
C         7.60556409396465    1.34190910701574   10.11132942791652
C         7.16667512103048   -0.01878916124809   10.37108388027208
C         6.23906305732790   -0.84292448651654    9.75567124315990
H         5.67382720222057   -0.49246820388240    8.90681025935617
C         6.06971191041495   -2.11741702671247   10.26990987584982
H         5.35223186069227   -2.78446586781792    9.81481971559403
C         6.80781993727856   -2.56076946459385   11.36509077550248
H         6.64769699003433   -3.56261989683217   11.73579970594558
C         7.73965174281952   -1.74443723161697   11.98387840092807
H         8.31647478725366   -2.08077677316527   12.83066846696439
C         7.91175931689250   -0.46635727586405   11.47876275318829
C         8.77837816148605    0.63756738860128   11.85614833993418
C         7.76466103908485    3.67994618180126   13.54756270365932
H         7.79968033189001    2.90537264685256   14.30395311804222
C         8.52070417279051    4.87275756270200   13.55205597258033
H         9.23365002591153    5.16786860478987   14.31223431843292
C         8.04686632641036    5.69237833302114   12.50506744260385
H         8.33558095168727    6.72051213627391   12.32601790008534
C         6.99946957431659    5.00748772182461   11.85476542645676
H         6.35139820265268    5.42155550448375   11.09271633839698
C         6.82471137644493    3.76437739158596   12.49769777510316
H         6.01839753502151    3.06583164986116   12.31217894772416

