85
CSD_code = DUDWEG | q = 0 | S = 0 | Stoichiometry = C42H33Br3MnN3O3 | MND = 6
Br        7.69450838944099    9.31801560648169    7.93314423760375
Br        0.71381178033037   10.76189981104432   12.43867024364365
Mn        6.55437236723772   15.23422013726542   12.12860669416268
Br        7.63453238459615   22.06412600980833   14.78498609260433
C         7.01086768402979   11.18273511939103   11.56632961468530
H         6.75664547629886   10.89346493630021   12.57504578049460
O         7.01102169372097   13.41824405808612   12.25048615857748
O         5.05443440780474   14.65629699647273   11.08261720329764
C         3.33449268552928   13.23715621728651   10.40282309555554
H         3.55726719557993   13.49319779427829    9.37804808645857
N         5.49969903563019   14.95029972041947   13.82590631487910
O         6.01396300985663   17.00025194540991   12.04622232537810
N         8.25251855280774   15.82530885102011   13.05177974759952
C         9.36160099637111   14.89364755601957   13.28348138859371
H        10.31413000795279   15.39702622570164   13.07708040641154
H         9.25274947311712   14.04552490842509   12.60336121360250
N         7.47618856911018   15.35458545287774   10.33745644593311
C         8.79970645104121   18.71985216341779   10.64114601819636
H         7.87643899900612   19.25337888453516   10.46764571085854
C         7.48103650414849   10.63623699896086    9.29041891753960
C         7.15725232008380   10.23552126385784   10.58577637329438
H         7.02489586641823    9.18782998322226   10.80898296761287
C         7.15824861329645   12.56312992449604   11.29324180490938
C         4.11824483679005   13.85639552695582   11.41626059247943
C         3.81378869221806   13.52856482763306   12.77784147953985
C         6.35754410833750   18.06221927914716   12.67934407452091
C         7.58856826492835   18.14046266671537   13.40581720074814
C         8.47001301202486   17.02442317328808   13.49403679106072
H         9.42924156993396   17.23698699911890   13.97175153328985
C         9.34226156823443   14.40505037402371   14.71305018711320
C         7.13267545682666   20.44427693290346   13.92465369481834
C         8.88511910324738   17.37039513052881   10.32556541694864
C         7.48717318257157   12.95003881710431    9.96031415625393
C         2.35080506841146   12.33620637424823   10.69939967604159
H         1.77843504557645   11.86590488585135    9.91401821031312
C         2.08629297206829   12.02095036412391   12.03595771629457
C         2.79105545014985   12.60645041094953   13.05439884220308
H         2.56497570198455   12.36033291949763   14.08238229829223
C         4.48491360993225   14.14898399394680   13.87004935121583
H         4.05761324757688   13.91498122387947   14.85116607404718
C         5.85574309879444   15.55389483380855   15.09373622889956
H         6.93825689437943   15.67239561663026   15.15098308841756
H         5.54916299838759   14.89851817382261   15.92487407660676
C         5.19986684727152   16.90382151150172   15.30168884128215
C         5.84142074586481   17.85199126601223   16.08955783463768
H         6.80987061167727   17.62359586758001   16.51217175261167
C         4.00913694362000   19.37058522405735   15.80044845321877
H         3.54774535216149   20.32745150409585   15.99319187852258
C         3.36529410929795   18.43258284167501   15.01363793556840
H         2.39692710547173   18.65453051066179   14.59004560062309
C         3.95451520209917   17.20395430680174   14.76839207430405
H         3.44284211709136   16.48125156580864   14.14849647682563
C         8.44150529070658   13.41870973685030   15.09804263827568
H         7.77974131601108   12.99772662926860   14.35561107598090
C         8.38846239518356   12.99488083659982   16.41359174343541
H         7.68762840086016   12.22572182183611   16.70316389439647
C        10.13626285682968   14.53043985856199   16.98205244720325
H        10.80276115826182   14.96353870965135   17.71310591381102
C        10.18901694469868   14.95673466671618   15.66543116391669
H        10.90448586659780   15.71517574177135   15.37907705745278
C         7.95748721920554   19.35147513316223   14.00547011722944
H         8.89396364211261   19.41379990189414   14.54058998556689
C         5.92373788447691   20.39082347717319   13.22964066554739
H         5.29412689206032   21.26601331892757   13.17737256451461
C         5.55224402750222   19.22613743114341   12.61369939888759
H         4.62409317448896   19.16345779938162   12.06636528405944
C         7.70706472990972   16.64457117747499    9.72092665993319
H         6.80194846863579   17.24460924657514    9.85559359344527
H         7.88610501622969   16.52572021277436    8.64022100018885
C         9.88882898202399   19.38627866979796   11.17534418883041
H         9.80903000643252   20.43543291172701   11.41757823416554
C        11.07478776417859   18.70981986971245   11.40207327758942
H        11.92314633105596   19.22855920339532   11.82305419106132
C        11.17238844478889   17.36724408751194   11.07655650484030
H        12.10051897015166   16.83743844371786   11.23725672947926
C        10.08587138903280   16.70296738615211   10.53533026949637
H        10.16798726983242   15.65640373966841   10.27570954367627
C         7.65280197507264   14.32390766113924    9.58952287345831
H         7.96173588311276   14.47427849628441    8.54932086503033
C         7.65040263903531   11.96386561904131    8.97934997110903
H         7.90260663680842   12.25485852024925    7.96957761224522
C         5.24965177943316   19.07614530955643   16.34038994833220
H         5.75815790303419   19.80287522563172   16.95657985122593
C         9.23499841461141   13.55045636224900   17.35905002014804
H         9.19526494729713   13.21798510726190   18.38556233687576

