64
CSD_code = DUDXUW | q = 1 | S = 0 | Stoichiometry = C27H33N2PRh(1+) | MND = 6
Rh        3.04999498532419    4.36645083032859    7.70696461067717
C         3.51611657806258    5.08959083813984    5.70756870398434
H         2.81238259251396    5.88209060540901    5.45636699982264
C         3.08326421033145    3.78266829050774    5.59761147140004
H         2.05072523628824    3.62485043265205    5.28498133133138
C         3.99317091294750    2.60352344325990    5.33318809690799
H         4.84133267696700    2.93866812288275    4.73694035466849
H         3.45202583798073    1.86922852338394    4.73408042851226
C         4.47854183053054    1.91855570009148    6.62529802845727
H         3.76978860462050    1.13473929260095    6.90552387232103
H         5.43966280368107    1.42661969099010    6.44695131410728
C         4.62390699046261    2.86475881953327    7.79057840277009
H         4.57011878785756    2.36935776327747    8.76214743532255
C         5.23251091142191    4.10409714247408    7.73698705146982
H         5.58129227500436    4.53285362294078    8.67534635695872
C         5.90168109599630    4.66429147125201    6.50509012523393
H         6.28541877665915    3.84432484748103    5.89894136936963
H         6.75815569055004    5.26625855628695    6.81215187805903
C         4.94991404807412    5.55142807348564    5.68438500366924
H         4.98160036270224    6.56905138657027    6.08300737142165
H         5.28853880967663    5.60434545537774    4.64480351471720
C         1.12965365711791    5.33641285504590    7.52527860711400
H         1.40149690494925    6.38250310132476    7.69731888902781
H         0.74954866235070    5.21363169711841    6.51078442639803
C         0.16894985578232    4.87738522015623    8.47496971339275
C        -0.89754277136018    3.15196306023834    7.05694253161802
H        -1.31468001854954    3.77928288329637    6.26600844872848
H        -1.56975684097506    2.31627281156019    7.23472154566581
H         0.07249717510147    2.77202374448004    6.73064674065963
C        -1.46889772058333    3.71952550919975    9.42331556305143
H        -2.24784588102371    2.99040523639984    9.49549161887646
C        -1.00443230324270    4.59542182888120   10.33930992926861
H        -1.30839514072998    4.77073851267484   11.34949557507834
C         0.83161323013236    6.29776097487270   10.39138945261994
H         0.24147006974775    6.79571835848850   11.16504478432850
H         1.12052425923955    7.04563288318434    9.64927508646183
C         2.07978616397448    5.66066436205077   11.00815682627197
H         1.84540153523648    5.24248531924951   11.98986954013745
H         2.84021136523348    6.43039624137424   11.14855508712220
C         4.31408707984284    4.02256863920334   11.02283680625787
C         5.21971877685701    5.07263652088294   11.16741922888069
H         5.01707325268678    6.02636450557670   10.69678131217695
C         6.37967766823599    4.90145374172893   11.89878366746959
H         7.07125318697384    5.72262194160298   12.01099423974948
C         6.65599595724935    3.67450208086719   12.48125315729706
H         7.56083011808835    3.54023671053339   13.05320778465662
C         5.77405873393355    2.61959718442808   12.31997400794886
H         5.99171589910851    1.65969746101237   12.76294044946341
C         4.61114483743508    2.78729834543768   11.58801706315378
H         3.93259675144857    1.95544237572944   11.46190363748383
C         1.77982855944836    2.86448499306324   10.41065364900837
C         1.32162658405013    2.58065791457813   11.69348461944651
H         1.60341634470392    3.20629401515702   12.52839180688557
C         0.52251414466042    1.47357207767446   11.91477673148237
H         0.17307362542011    1.25711135022790   12.91278955775387
C         0.17809442831215    0.63696783634506   10.86493891994393
H        -0.44366753817275   -0.22615288990789   11.04572245989105
C         0.64522801079970    0.90166794579260    9.58802247377564
H         0.39326370981009    0.24117283652135    8.77168496471572
C         1.44249284095896    2.00918883815735    9.36587614637017
H         1.82737454977033    2.22978157049300    8.36963323429701
N        -0.74391549577876    3.90032476091439    8.27226954549538
N         0.00133045237306    5.31799952287131    9.74529740671081
P         2.83484130179054    4.29423221254483    9.98625904273011

