64
CSD_code = DUDXOQ | q = 1 | S = 0 | Stoichiometry = C27H33IrN2P(1+) | MND = 6
Ir        1.07180605540758    2.47071414111897    1.96341792767413
C         1.04468616352592    3.06748765649989    4.05632717858036
H         2.06670965744512    3.22420916488958    4.39542770400605
C         0.61063186200980    1.75205390898970    3.94679710432837
H         1.30851198291378    0.96598703552840    4.22780571804070
C        -0.82776100787175    1.30566116209126    4.00832263623194
H        -1.16013288857855    1.31401564350344    5.05085403104322
H        -0.87241815295629    0.26955597460014    3.66779249085571
C        -1.77554996703393    2.15840195037467    3.14635102248817
H        -2.61487603516619    1.53660938160117    2.83306501972853
H        -2.18667790934749    2.98234150877846    3.72919468593314
C        -1.09003644775129    2.71170183424515    1.92002203981676
H        -1.45239231526109    2.30247986185289    0.98012182624873
C        -0.48746404658910    3.96367109209126    1.87475429101728
H        -0.45867040531527    4.47122310018788    0.90969742799489
C        -0.38450932497907    4.91049546564125    3.04391283128414
H        -1.36214582553377    5.36794313047701    3.22234429567548
H         0.29702409278096    5.71835401650681    2.76891231928993
C         0.12231806895230    4.23461952206359    4.33179936231739
H         0.65699923802117    4.97604409964262    4.92713575652317
H        -0.71702196711283    3.88699301741271    4.93340042460563
C         3.04607960900923    1.54652847185253    2.14877432535518
H         3.43294024613572    1.69107239659492    3.15654239196094
H         2.81887035788620    0.48849282598502    1.99950025075939
C         3.99453530080627    2.01078448846454    1.18744826775955
C         5.07149978038553    3.74619860213301    2.58549419254835
H         4.11226048880290    4.14765154555438    2.91461679519190
H         5.76112957778069    4.56646745696911    2.40339255240904
H         5.47764948936065    3.11207113566260    3.37639564529560
C         5.60361711297657    3.18460620040040    0.20861063128620
H         6.37454287335872    3.92060329213692    0.12267107327439
C         5.13126722661938    2.30466587601736   -0.69889185686500
H         5.41908557881577    2.13172162880756   -1.71412740419030
C         3.30484050775859    0.59235346339898   -0.72341269417451
H         2.99976904469744   -0.13686708024761    0.03005822939382
H         3.89563019112915    0.07227715933932   -1.48205657609006
C         2.07024654392810    1.23182484419677   -1.36577767786415
H         1.31008170891556    0.46361109925894   -1.51333669070016
H         2.32385170449160    1.63966119876862   -2.34687439675605
C         2.37030819551845    4.02831541235868   -0.79518393806228
C         2.72936074850161    4.89194648626486    0.23437060189288
H         2.35433081712133    4.69150309451201    1.23198887080983
C         3.53738005323979    5.98695511626972   -0.01099525180107
H         3.80624542039412    6.65331632770799    0.79494147869447
C         3.99317444010593    6.23106864507499   -1.29579436511823
H         4.62398296476658    7.08367389894659   -1.49409243751144
C         3.62370095773499    5.38784512431751   -2.33180249016336
H         3.96158042129520    5.58911586276049   -3.33690874205379
C         2.81376230310893    4.29379511784424   -2.08734555965767
H         2.51102772856680    3.66456687005022   -2.91224081753540
C        -0.16541070930929    2.88555085438617   -1.39366211399801
C        -0.46835362382864    4.13602540152284   -1.92228551451186
H         0.20634192569157    4.96658103586232   -1.77005078550630
C        -1.63041026805359    4.32078851914740   -2.65098181992483
H        -1.85139333770616    5.29249603159813   -3.06555289970410
C        -2.50722451857045    3.26708784182322   -2.84518694035095
H        -3.41141644009599    3.41392800653340   -3.41499850828676
C        -2.22629760723857    2.02513906115785   -2.29806253302322
H        -2.91437837499959    1.20485488359406   -2.43499940471656
C        -1.06714248456261    1.83711154379296   -1.56929488855381
H        -0.86369966641368    0.87102335744533   -1.12664328439525
N         4.90004590358292    2.99795683405960    1.37250986023147
N         4.14118913565191    1.57404237275056   -0.08748634218568
P         1.31026784508489    2.60632502683158   -0.35392532684648

