36
CSD_code = DUDZAE | q = 0 | S = 0 | Stoichiometry = C14H11BN3O3ReS3 | MND = 6
Re        1.57748863780268    4.14747933425204    3.92326245236857
S         3.72763350334736    2.88354388192962    4.43677888017547
S         2.23209311931102    3.83080105757638    1.52879693262832
S         2.66572686964358    1.86434873771082   -0.54526812666618
O        -1.11268241138111    5.38899550057339    3.03644587590316
O         3.06683070885601    6.83695638794771    4.14187303832454
O         0.94616325720956    3.90263285173668    6.93820537332156
N         4.16628458400153    0.36446668189367    5.13669786488438
N         2.28534690727498    0.56338114592103    4.01779477726418
N         1.56580395295484    1.16938627806916    1.69634878861982
C        -0.11822112290192    4.94702183675142    3.39180934121915
C         2.46594711452785    5.86826445633618    4.09059207782731
C         1.15413565310061    4.04693522814208    5.81926586479800
C         3.34038324231495    1.23897537730108    4.51216607343306
C         3.61436105890909   -0.88581482310295    5.03728639106256
H         4.08391189289751   -1.74950079143245    5.45957158414911
C         2.45556076786206   -0.75517609616160    4.35348874300655
H         1.73337944076891   -1.49683002253720    4.08772949446063
C         5.39580944999084    0.71206100418708    5.78761830913600
H         6.21000106928892    0.78434800133850    5.06290195487725
H         5.63780212958143   -0.04567338724631    6.52972700869510
H         5.28182934940154    1.68283511917164    6.27153150659930
C         2.08841059400564    2.23006708005414    1.07246723933659
C         1.55298029724822    0.03499580565640    0.90433593555559
C         1.02793725377405   -1.21346181727843    1.22245671499677
H         0.53732826907798   -1.37204689600742    2.16665746110006
C         1.11238940520167   -2.23752012564395    0.29926177510943
H         0.70026051597193   -3.20348655258012    0.54797215664682
C         1.71130053668109   -2.04700425842942   -0.94009165195069
H         1.76885877088323   -2.86384854889912   -1.64218504448898
C         2.22290169470958   -0.81026712663240   -1.28381224629622
H         2.67799366847211   -0.63514343267215   -2.24535205563679
C         2.13274550728694    0.21550467027630   -0.36036347256350
B         1.11446042918269    1.12090058108491    3.18685537545731
H         0.15130781904890    0.44851348247620    3.31496580420633
H         0.85193606368657    2.26755937822718    3.58080780244055

