113
CSD_code = DUFFUH | q = 0 | S = 0 | Stoichiometry = C58H46N6P2Pt | MND = 4
C        11.16711789778886   -3.37228031412001    8.95162086142676
H        12.21627299449095   -3.59961286786715    9.09784009824672
C        10.18520735226123   -4.28972386785561    9.29183985053791
H        10.44774350161562   -5.25009840149116    9.70824721826605
C         8.85960115135347   -3.93437154255874    9.08032057244405
H         8.06106076563930   -4.61885204688221    9.33201451110610
C         8.58003418513063   -2.69417997873557    8.54314645387923
H         7.57182355621482   -2.36221356529458    8.35390440153480
C         9.64348898688471   -1.84042421722366    8.23139884812615
C         9.39890986861894   -0.52489006650583    7.67496189159948
C        10.35055279297598    0.44111465583135    7.28922847268621
H        11.41417618716398    0.33894245606409    7.32966073312884
C         9.60463304689428    1.51145336869890    6.86299735349924
H         9.88388985330823    2.47645806703637    6.48905456394616
C         7.15791338035662    1.97648798613647    6.68666237667797
H         6.99659766849884    1.98306284594690    5.59799146782421
H         6.29401861009285    1.50643918345099    7.16818013318473
C         7.35071261139027    3.33443044249277    7.17408671223779
C         7.55977499772708    4.45378659012499    7.57370766406603
C         9.55730619413251    5.59825451468643   11.53950601598416
C        10.41592380285862    6.66388184453005   11.29828898865490
H        10.25283082503726    7.28690424210702   10.42891639605359
C        11.45897847987998    6.92759216675823   12.16875465112530
H        12.12299173186566    7.75728401041339   11.97544145880144
C        11.65293130930498    6.12829829326091   13.28245144921936
H        12.46668484676398    6.33353030778495   13.96230899287396
C        10.80587373655744    5.05736066649440   13.52139060094007
H        10.96061041058600    4.42780567591299   14.38566805207361
C         9.76368850076104    4.78783853929645   12.65418160057097
H         9.11860396697845    3.93805411783711   12.83272659565024
C         6.70613751534720    5.89166163727103   11.30102126475323
C         5.65507584471841    6.36132260517414   10.51544490127987
H         5.75577921223573    6.34114963012209    9.42641965535887
C         4.50789928846545    6.85507818591537   11.10657625296420
H         3.69781906457970    7.22243347264550   10.49365562831909
C         4.40360635460911    6.88647259449266   12.48842837120976
H         3.51105162187206    7.27762809143711   12.95400883483752
C         5.44726906522698    6.42418801845503   13.27327642406255
H         5.36658490317944    6.45475209039379   14.35014385492951
C         6.59794279811286    5.92782303058777   12.68542263680050
H         7.41358617718210    5.58169962039551   13.30359080025907
C         8.02994033969760    3.47501005395925   10.49689762681116
C         6.80780587637771    2.83732070113200   10.66529976287069
H         5.90800095947924    3.42420852977795   10.79130583221491
C         6.74776589239157    1.45460383010726   10.66951257491380
H         5.79563289006845    0.96040659502240   10.79814104848494
C         7.90085272926984    0.70454558650670   10.51180516095833
H         7.85268755455999   -0.37374828431981   10.51616480023256
C         9.12025272718286    1.33829307091148   10.33090131351043
H        10.01750164902514    0.75285790354867   10.19632173011514
C         9.18288902072467    2.71753728881936   10.30612182149702
H        10.12817433699066    3.21998741323480   10.14464501736770
N        10.91458575381491   -2.18333061658735    8.43918133673920
N         8.16590488404569   -0.05403664776818    7.48543144511642
N         8.30914418607989    1.16383261593455    6.99979309494025
P         8.16878823000930    5.28645174759297   10.40164051554507
Pt        7.94958926224007    6.25922798695256    8.35235915670827
C         4.76143408617361   15.90408802692686    7.77427882986581
H         3.71330247176149   16.13467524199994    7.62584316921281
C         5.74672008563292   16.81984094577454    7.43928385291148
H         5.48789372585642   17.78210049385958    7.02490781416074
C         7.07078253415220   16.46029813222301    7.65332954147379
H         7.87185586439423   17.14333252564927    7.40579202595229
C         7.34555143135238   15.21780193246687    8.18767023538840
H         8.35238919375260   14.88259272140706    8.37851836874544
C         6.27896802971027   14.36603337308467    8.49416606849570
C         6.51855802254259   13.04823680997546    9.04745823823903
C         5.56338719526384   12.08522329502923    9.43188550508282
H         4.50016035877729   12.19198301189989    9.39284540358457
C         6.30536023551417   11.01093252176481    9.85513202761172
H         6.02251767715992   10.04624315645799   10.22722634347965
C         8.75053879710204   10.53621606754524   10.02887324579312
H         8.91098294855880   10.52526961252994   11.11762542254365
H         9.61614759483998   11.00547272401127    9.54967348210744
C         8.55474376644450    9.18040246514901    9.53681224170819
C         8.34392707913935    8.06314256648132    9.13243370544785
C         6.35163545596265    6.91989161824242    5.15831829548707
C         5.50409856485637    5.84273604016658    5.38749907660412
H         5.66949069785992    5.21589350333754    6.25366135960907
C         4.46932206677949    5.57247311534739    4.50925023879264
H         3.81427924986139    4.73355939157116    4.69316258570242
C         4.27245303532798    6.37670953823715    3.39963198308805
H         3.46546631866968    6.16609543233015    2.71338097749427
C         5.10790017791678    7.45936167264890    3.17304569570548
H         4.95066177243921    8.09279500236567    2.31205575840120
C         6.14189176880813    7.73541693250037    4.04804102656608
H         6.77791132980313    8.59385705640382    3.87866550853684
C         9.20174494104428    6.64191091024115    5.40609008295314
C        10.25105049003701    6.16869488720676    6.19175961566604
H        10.14532992826116    6.17784606975810    7.28050150341286
C        11.40296551651020    5.68559122642450    5.60097324541952
H        12.21200465505168    5.31599945120193    6.21392812281208
C        11.51369407027109    5.66851088946389    4.21939692880491
H        12.41011413901226    5.28604594601227    3.75403437628835
C        10.47164317071244    6.13419077497439    3.43436443206366
H        10.55732006785661    6.11466136105610    2.35762830165670
C         9.31634945754191    6.61996847388654    4.02187163082830
H         8.50211355820775    6.96916754499326    3.40356405602794
C         7.86526359329727    9.04807219862205    6.21603715828185
C         9.08628890072851    9.69010414540652    6.05580654579701
H         9.98830336983970    9.10635238951121    5.93113183707346
C         9.14249811859257   11.07291735310219    6.05815821629282
H        10.09375691448036   11.57038499970615    5.93592015464503
C         7.98667030672027   11.81900616274345    6.21468604192147
H         8.03197170903036   12.89742792012150    6.21545652237561
C         6.76842591168357   11.18096220105494    6.38807254300818
H         5.86915661249728   11.76337679125864    6.52236856441798
C         6.70947080089258    9.80138139866866    6.40583615920467
H         5.76494555856273    9.29553613052083    6.56108421071107
N         5.00936786964557   14.71301544631266    8.28403416224892
N         7.74980935448145   12.57196947165549    9.23483289196610
N         7.60210734766489   11.35358367122667    9.71783124995128
P         7.73328075049326    7.23573739948118    6.30365356923754

