63
CSD_code = DUFFER | q = 1 | S = 0 | Stoichiometry = C26H32AgN4(1+) | MND = 2
Ag        1.59939037119706    1.06606720508518   17.57792413600162
N         0.91159821571729    3.24542887281349   19.81731550966415
C         2.74130766076670    4.44767179341963   20.05215818431900
H         3.49694521082591    5.14957675289693   20.33309741680136
C        -0.90230879524745   -0.94501218526669   15.92672517073119
H        -1.10044668473964   -0.14533687306675   16.62900797293111
C         0.67106323024165    4.98942339824620   21.48336100515988
H         1.10685916280522    5.81554895961844   22.02035666286444
C        -1.86683909650309   -1.67323910173447   15.31977553912180
H        -2.90412678718630   -1.47140537069125   15.52785873887007
C         4.60531830391313   -0.28976901231920   14.60015651231090
H         4.02778373564465    0.55908856499294   14.22563089844051
H         4.62746647169649   -1.05475595111009   13.82194879343086
C         1.50631414554155   -0.58038319941290   16.17444696367191
C        -0.21797579147085   -2.96924839373821   14.13273278412580
H         0.08305237035639   -3.74267806654362   13.44577603932276
C         4.15210638112232    3.27488615083500   18.37958287868562
H         3.95127240847002    2.44370039692215   17.68082335948466
C         4.54309633985419    4.51039611729753   17.56796400214232
H         4.73970067922832    5.34750784396336   18.23976370333038
H         3.72076950452895    4.79044207665142   16.90598898894497
C         5.28963843687129    2.86814512160615   19.31841006654231
H         4.99394927447317    1.98678340843409   19.89257859746736
H         5.49259187363902    3.67820491612007   20.02095038266829
C        -1.13052077442208    3.47570395576406   20.96373793426359
H        -2.14234726819227    3.15270086494837   21.14257425118404
C         4.72741946630426   -2.04305970150447   16.39763519537256
H         4.76233303413835   -2.83601864175060   15.64872923967763
H         4.23478408354590   -2.43752737494808   17.28904751733873
C        -1.52254694496098   -2.70623110739050   14.40525463832470
H        -2.30940944635766   -3.27266615290205   13.93527403478952
C         6.94369206745137    3.78668983946361   17.66898831358917
H         7.20461077033396    4.61476114565124   18.33042509478296
H         7.82437419960332    3.54947811595926   17.07155037216395
C         5.79900657209582    4.21120583573097   16.75359375392560
H         5.58518228190889    3.41551213927545   16.03607192842925
H         6.08560344933546    5.09823616763510   16.18853186960745
C        -0.60377332503431    4.57276532083976   21.69926027563811
H        -1.22900364715981    5.06361659838378   22.42653338950570
N         2.92184833010884    3.48501504460111   19.11134027824423
N         2.55530114842160   -1.20287495171685   15.59810828787285
C         1.45638052776252    4.31518691520949   20.52083030949194
C         0.78195547077178   -2.20210630035448   14.77276072857511
C         6.83464606943402   -1.02379302363490   15.49417122206319
H         7.83943982410215   -0.68812432014814   15.75230952793316
H         6.92924584495375   -1.80215340194628   14.73469238498611
C         3.93529013011675   -0.85257157982192   15.85554599855760
H         3.90903923737976   -0.06497868614252   16.62911197909797
N         0.41226744764948   -1.19935797743627   15.66375523687636
C         1.81530245924559    2.73102619695400   18.94581539227192
C         6.03193881398921    0.14320007400029   14.92621402825485
H         6.51298056753245    0.52142745899330   14.02367853722752
H         6.00613110983751    0.95701139944144   15.65495944071060
C         6.15041585152075   -1.60214518410905   16.72978834536503
H         6.12225585255263   -0.85010678609487   17.52232248202114
H         6.71759165456621   -2.45531820496297   17.10284090920271
C         2.15569469222079   -2.18326031349710   14.74719694146703
H         2.83223754637522   -2.79380434380384   14.18853045021667
C        -0.37085867838727    2.83800214818152   20.04431330365953
H        -0.71407018890970    1.99719942275952   19.45521380052430
C         6.54870457368531    2.57456871249809   18.50775578612062
H         7.36255405096851    2.30814622741257   19.18270256745759
H         6.36717652379779    1.71910104342016   17.85259994615329

