64
CSD_code = DUFJIX | q = 1 | S = 0 | Stoichiometry = C28H31ClN2PRu(1+) | MND = 9
Ru       -1.55610568899416    4.12359863007476   19.01944995148505
Cl       -3.48556437353372    3.02043445243239   18.26681392480181
P        -0.42130632756749    2.37614273656655   18.13405396235595
N        -1.92682754150364    3.05591587057116   20.74659228632706
N        -0.20236050027012    1.45869742627975   20.68468797221187
C        -1.15072683721165    2.16279043390069   21.38241936652638
C        -1.27491218442708    1.96020707433846   22.76757259384134
C        -2.26790671415391    2.60018813842594   23.46919674661371
C        -3.16211184449819    3.40562325797262   22.76665845458743
C        -2.94923057665186    3.60262637728654   21.42263223946168
C        -0.45331976999028    0.97387060534544   19.34046808786410
C        -0.99357269246381    1.62193364068614   16.58880571319920
C        -0.69406766625949    0.30176767457602   16.26381292907496
C        -1.12412688846263   -0.22045994440981   15.05705369478631
C        -1.84031475922520    0.56597054194816   14.16888639845749
C        -2.12286393737585    1.88572152147510   14.48203109259314
C        -1.69852431606973    2.41334909681642   15.68722190891726
C         1.34196294131743    2.66929496703326   17.82042867755743
C         2.28703366818447    2.55139975156647   18.83533525655617
C         3.61736693528928    2.82817638916916   18.57611246643349
C         4.01171729279588    3.23254027177664   17.31034128242617
C         3.07253153051942    3.35772812182113   16.29877939325552
C         1.74111456810311    3.08108472908179   16.55091582410921
C        -1.99087517246063    5.96474995218178   17.68024604274016
C        -0.61092551126325    5.69905322589520   17.65645619567822
C         0.14479270972653    5.65083632016551   18.85722661888048
C        -0.46776692741675    5.88045297088835   20.10100569292188
C        -1.85156375665915    6.22011251199370   20.10962858580549
C        -2.59780844998863    6.24979137271098   18.93835808264415
C        -2.80423294709913    6.07716317769737   16.42910542625591
C         0.32457450685889    5.96386064576500   21.38411866857300
C         1.36998391681347    4.85561768827535   21.50180271488495
C         0.98446034513230    7.34525905507099   21.46896767438755
H        -0.59575507573032    1.28162033387768   23.25973417317971
H        -2.37569791901012    2.44938363164258   24.53120285118204
H        -4.00114433268166    3.87025751599871   23.25610973874289
H        -3.64269247707415    4.19662068637459   20.83677686292704
H         0.29747370784735    0.79929772250228   21.26770450456258
H         0.32116371562526    0.24504792519496   19.09124020418409
H        -1.44868006385699    0.50786732123230   19.25399992812332
H        -0.12846377908107   -0.31758596616049   16.94388093406245
H        -0.90004645090988   -1.24693751032573   14.80976232731495
H        -2.17806821850151    0.14904951647870   13.23269447479223
H        -2.67918738225396    2.49937386591827   13.78996719007082
H        -1.92856821081033    3.43572090973489   15.95445394373157
H         1.97952316187191    2.24095348872544   19.82278324660588
H         4.34934794219093    2.72786202714579   19.36341757904536
H         5.05040354896985    3.44713627212996   17.11189562697831
H         3.37932957211129    3.66772241654603   15.31144556636769
H         1.00653845493313    3.16475249750295   15.76156593126571
H        -0.09451574307525    5.60240565671098   16.70589801702685
H         1.21746827052550    5.51074831742753   18.79462953587289
H        -2.31143237019101    6.50839819644234   21.04951223711414
H        -3.64040323119098    6.54681556258144   18.96094348950752
H        -3.26476284822942    7.06331488251192   16.37321503342964
H        -2.19304705571325    5.92683961920015   15.54196979634287
H        -3.60792710659099    5.33852434589673   16.43672885609049
H        -0.37537914904285    5.86430435542317   22.22322801776270
H         0.91310616235612    3.88468280780291   21.31617351841745
H         1.79304618879620    4.85548206908057   22.50270114363975
H         2.18162002236759    5.00050965243697   20.79349082804306
H         1.52899888573231    7.43690722388493   22.40468959528088
H         0.23780880069745    8.13503544965602   21.42676477620950
H         1.68301994869540    7.48599052101052   20.64723414597841

