67
CSD_code = DUFNEZ | q = 0 | S = 0 | Stoichiometry = C28H28N8O2Zn | MND = 6
C        -1.04260001226400    0.88521536593073   -1.45222490602233
C        -1.47211692711365    0.74265827724750   -2.76753654394225
H        -1.29892110742030   -0.19742599899657   -3.27399151486511
C        -2.09600616403347    1.78055103405817   -3.43526993954521
H        -2.42112275092528    1.64069427590721   -4.45533552520892
C        -2.27642458017569    3.00213967348134   -2.80282139014815
H        -2.73819237556996    3.82334772043209   -3.32924301428104
C        -1.86911457641861    3.15686535685339   -1.49538152015787
H        -2.00704899128764    4.09143748335182   -0.97391775642789
C        -1.28479042453382    2.10360058358020   -0.78513173689819
C        -0.95213794463567    2.33988052699550    0.62038570195594
C        -1.08986487662976   -0.86289739415720    3.51696146375269
H        -1.45803824019479   -1.05693913386792    2.51173777686226
H        -1.87600848271294   -1.13750124717064    4.21994383344399
H        -0.23326424877861   -1.51300818616644    3.69521059337351
C        -0.70281298699672    0.57925593775985    3.69969360798947
C        -0.24560637088601    1.06871487392042    4.95170976164910
C        -0.16501323322290    0.27325165099428    6.11841699529535
H        -0.46783278597204   -0.76119428917160    6.08103468810965
C         0.29581189263016    0.81789176082512    7.28617009393486
H         0.36312179348187    0.22101014295639    8.18445446242956
C         0.68102670102812    2.16690618833728    7.30524096497937
H         1.04711773844495    2.62858590414496    8.20772430411861
C         0.57753954025855    2.88518699490913    6.13156134343774
H         0.85869423714815    3.93024833475489    6.09874776396702
C         4.96200484220301    4.84269835824040    1.96970981565072
C         6.15475608679633    4.79330815869103    1.25632999376602
H         6.91662840721947    5.53276810764623    1.46390020468011
C         6.38517948209836    3.81583831515104    0.30549112461144
H         7.32001217656663    3.80433422537207   -0.23447015795762
C         5.42533747269536    2.84199334342715    0.06901024884978
H         5.60981717747295    2.06282159429987   -0.65487418450097
C         4.23449184924127    2.88092927076018    0.75969834244119
H         3.46541365131727    2.14375911819285    0.58886937021304
C         3.96006197509952    3.88860417419712    1.69189064317705
C         2.63929243953038    3.88173735341469    2.31384831709297
C         0.73940654680437    7.53204995989632    3.17834589034803
H         1.02780704654391    7.66204204121064    2.13275271596441
H         1.62954279996991    7.66842716417054    3.79624865123253
H         0.03064382654084    8.31266512787474    3.42742557733190
C         0.15394369777173    6.16359996644300    3.38838936821500
C        -1.18542994411079    5.90898928597840    3.77971303425577
C        -2.11906005397143    6.90512156443519    4.15134944407274
H        -1.82530483007770    7.94298336489404    4.16624290479247
C        -3.39486494308459    6.55563151469608    4.50137299642424
H        -4.11343618540841    7.31114528199036    4.78532680112784
C        -3.76140741993954    5.20197000977696    4.49162331133798
H        -4.75796341327846    4.89161994300971    4.75963633207650
C        -2.80258748075394    4.27925316090399    4.12695922444679
H        -3.03477675324110    3.22184251246108    4.11003281790795
N        -0.40753733343887   -0.18201625870258   -0.81137818525966
H        -0.10721713546441   -0.90149092352370   -1.45551087326376
H         0.34101176836579    0.09929632787425   -0.19115815298805
N        -1.03237012811543    1.27153309544482    1.45854781920324
H        -1.33975824362896    0.36609127967123    1.11306496999350
N        -0.74384079979081    1.48682557906803    2.74550742198976
N         0.13950864429470    2.38062588434807    4.99161033436939
N         4.77113009072949    5.84625177162138    2.92221705870892
H         5.63094279300351    6.31443960607035    3.17513521475343
H         4.25084002465511    5.54768087812863    3.73643600162399
N         2.13104537988914    5.08376129860081    2.70896191236134
H         2.57669891146944    5.94737417664616    2.41106188002662
N         0.87992841958221    5.07750751347163    3.18767328322179
N        -1.56691094210621    4.59292017273664    3.78155435100415
O        -0.65171887124718    3.46365427316829    1.07067633335809
O         1.96084358736708    2.84345406871483    2.46120145007350
Zn       -0.04969944280616    3.32068250266778    3.14413688547298

