57
CSD_code = DUFPOL | q = 0 | S = 0 | Stoichiometry = C15H34ClO3P3W | MND = 7
W         5.16808188492119    8.91861821340155    3.56482299844253
Cl        7.21264211613501    8.56262026027907    4.91927306732197
P         3.59342487672770    8.51213241600408    1.78840301584983
P         6.43849317668879   10.97769521905521    3.31480495010234
P         4.29958350926746    8.48351288786049    5.79145956834597
C         3.90158052893913   10.36285320653832    3.90179526550557
O         3.14435897019977   11.24338138309662    4.12173426257326
O         4.99412876895314    6.76717840608625    3.70598388412645
C         5.88794572334906    5.98677761830856    3.26595423642810
C         6.87549959316097    6.28094827652462    2.32055891228400
H         7.55919739614143    5.48044972391087    2.07700495447283
C         7.12065917344140    7.51130796056766    1.70482129738318
O         6.47314781434801    8.58816141173423    1.86358310849925
C         5.87518440300940    4.57334351924404    3.82314851332328
H         6.59712167691348    4.50354621850532    4.63635033379643
H         6.14478055886019    3.84792141544819    3.06002248238966
H         4.88763843323527    4.33991970153571    4.21716736616101
C         8.28853403968325    7.56892357323343    0.73408200304663
H         8.18798399300453    8.43748462895860    0.08586780224565
H         8.33804152616440    6.66694717282679    0.12917107951961
H         9.21869762241672    7.65884816924739    1.29402293042312
C         1.80396027582760    8.43279821882202    2.18658042232545
H         1.52048792069965    9.35159408925044    2.69545131515914
H         1.63029191882501    7.59272334403350    2.85698345434112
H         1.20478734563654    8.31059297029120    1.28474351622196
C         3.75911860563313    6.97879634502604    0.78272239570429
H         3.63157787673822    6.11311073265021    1.43137899181537
H         4.75393853082476    6.94126949104250    0.34114606145077
H         3.00746620811720    6.95676910100579   -0.00669347986245
C         3.59053367044154    9.77191718393398    0.45575472993685
H         2.89341914511285    9.50875660932608   -0.33957636508993
H         4.59995989419043    9.84516468762950    0.05324839210179
H         3.31166143316248   10.73003318561482    0.89034858375238
C         8.18211255834486   10.86804104975761    2.75240549317546
H         8.20476221129092   10.49558644976485    1.73071879046368
H         8.71456326520052   10.17411830582149    3.39973404206877
H         8.64936899845958   11.85192629986776    2.79837563835920
C         6.65234207474364   11.95609187924100    4.84719895164437
H         7.14323285434876   11.32524497346444    5.58623932353563
H         5.67303317823148   12.25463941426367    5.21642362521929
H         7.25904804255250   12.84065190737902    4.65431822473245
C         5.83431660371770   12.27842991075448    2.16413586480610
H         6.49562619439018   13.14416212205038    2.18411984100529
H         4.83123506420287   12.57875144784606    2.45865175505220
H         5.80227694314571   11.87019883330118    1.15566504728572
C         4.67258926971409    9.75245654687376    7.05672264498742
H         4.24901831054888   10.70421241602915    6.74225097550216
H         5.75488494096134    9.84404371698600    7.13323334845817
H         4.25688731124962    9.46451293449969    8.02209095842071
C         2.48145922008851    8.30847915571991    5.99025749532087
H         2.22123040693609    8.12452031265033    7.03213795198999
H         2.14549032704536    7.47302924921860    5.37800859434577
H         1.99610548974227    9.21880620068236    5.64540659400240
C         4.85448777523608    6.97532544248955    6.67620625554931
H         4.45513642121100    6.97092166907161    7.69059242941265
H         5.94243032564947    6.97033315524198    6.70526497042154
H         4.50633360221588    6.09721926600439    6.13722113415007

