61
CSD_code = DUFPEB | q = 0 | S = 0 | Stoichiometry = C21H32N2O5W | MND = 7
W         1.10728118288051   15.01100347886715    3.39881478027799
C         1.34560063181538   14.65219800772852    5.31450787687845
O         1.39917714550340   14.51446749706704    6.47260313736206
C         0.59226637111927   13.20790552744613    2.58175307458708
N         0.52202466956504   12.29232781662855    1.84605949211512
C         0.57887033932491   11.02498393834664    1.22529254966959
C         1.72748517408855   10.23486024397044    1.86114187229906
H         2.66470292811940   10.77071251290059    1.73437330113826
H         1.81069276387178    9.25677379002996    1.39392648669663
H         1.54989365301260   10.10737886879727    2.92611087798341
C         0.83773054011090   11.25337956651242   -0.26771072185189
H         0.02760189251414   11.83150395728879   -0.70583394726761
H         0.91059575911381   10.30068955164950   -0.78580409773253
H         1.76616441937044   11.80342033202504   -0.40462108943072
C        -0.76020250978359   10.31603354989429    1.44551063472947
H        -0.94549651878727   10.18676134857423    2.50903325240968
H        -0.74521279825373    9.33965501165267    0.96816827098315
H        -1.57247106181541   10.90230059096344    1.02283676238352
C        -0.68748916913836   14.70427315457447    4.30357339914367
N        -1.69607235109381   14.67780827968214    4.93119855832216
C        -2.34861942536977   14.78512119315339    6.19635019859362
C        -3.85828334176420   14.80614898668018    5.94629603904208
H        -4.12181016080408   15.65148723632915    5.31575950923061
H        -4.39414576227669   14.89014309785959    6.88809967921740
H        -4.16912892292193   13.89251570502429    5.44577725704279
C        -1.88662923686315   16.08492580136993    6.86198915078862
H        -0.81095392802996   16.05734000303730    7.01642507857330
H        -2.38277040959884   16.21237822688407    7.82106158115547
H        -2.11918376003515   16.93491518736072    6.22506328011830
C        -1.95505604996250   13.57523277241959    7.04851568878003
H        -2.25535379249214   12.65285874590385    6.55722800213949
H        -2.44135712795250   13.63228472960540    8.01914448192028
H        -0.87793046815392   13.55676461939085    7.19134484284491
O         2.89318031944216   13.78347170916004    2.99575310209249
C         3.49543288837170   13.83259961747938    1.88069770984618
C         3.10087546363986   14.48734760304626    0.71499781531988
H         3.76614673202517   14.38994182543346   -0.13265138522302
C         1.99737037035869   15.33869524246653    0.52627845733707
O         1.10986698479333   15.61716727608631    1.36784387300201
C         4.81004547054349   13.06963669195607    1.81862151474066
H         5.64094230522991   13.77058762695119    1.76380857555039
H         4.84763979912173   12.42966355661220    0.93978731356255
H         4.91799869167172   12.46924916990042    2.71854629605379
C         1.87981384072378   15.98907869410865   -0.84249793845365
H         1.82402910313904   15.22795921920294   -1.61833160743516
H         2.74944491333848   16.61314642277387   -1.03975477400274
H         0.98359157827976   16.60405704968931   -0.87607325566436
O         2.77506737310043   16.34676689681606    3.28665686827688
C         2.89443119360092   17.57530486382154    3.03826205493802
C         1.83648513325974   18.48465432745740    2.98056875322908
H         2.05823743220181   19.51849096639993    2.76597265297141
C         0.50844170420644   18.12477381966125    3.22924424221954
O         0.09259444297643   16.96709305062968    3.51163549938282
C         4.29714866464711   18.10134140456992    2.80166774966289
H         4.55605757622180   18.82877621812552    3.56849383099309
H         4.35563832537441   18.59185881255941    1.83212601996727
H         5.00633262800881   17.27734135142283    2.83560073989733
C        -0.53033289293405   19.23070352102106    3.21349600038388
H        -1.52178710217751   18.79685480822064    3.31576045404686
H        -0.47108944777114   19.79186283488566    2.28408244510735
H        -0.35222416669030   19.91692208991794    4.03941773205697

