53
CSD_code = DUFVIL | q = 0 | S = 0 | Stoichiometry = C30H20Cl2Zr | MND = 12
Zr        0.20102409222858    3.53769392172688    6.24254686507865
Cl        0.39181794705658    5.43734747342660    7.58027775778573
Cl       -0.41873704463972    4.79595998575212    4.38087797274306
C         1.75987589595861    1.67826504579646    5.65065763827882
C         2.19874481870628    2.14064215618587    6.92424459142966
H         2.38267838389774    1.52369001874259    7.79339887758412
C        -0.84431086745694    1.64030032144902    7.48157154234580
C        -1.29769303887682    2.88770420017427    8.00473907580789
H        -1.15926032290866    3.26113804879538    9.01331773863897
C        -0.16304059928269    0.70054220070431    9.65580262946727
H        -0.79438010621305    1.43961254705511   10.12365431605137
C        -2.94439839758802    2.97836390131969    4.74978583511342
H        -2.99207408012755    2.31772326787879    3.89415418009518
C         0.82129208369002   -0.60225306732406    6.21962123564734
C        -0.09014123813361    0.64977680180633    8.25961543559787
C        -2.12369257918101    3.50747000967561    7.01769628484796
C         1.33519579410205    0.32008115792092    5.29033750003776
C         1.88020718292117    2.75073399272090    4.71735747513659
H         1.68299903927420    2.71300348406439    3.65154382771297
C        -1.31766510832548    1.51701959587196    6.14367928009856
H        -1.28500555328735    0.62033702590669    5.54010731578228
C         2.69212144712865    3.46727635454227    6.76818582012587
C        -2.14975706885391    2.63775019094938    5.86258704228636
C         0.69543393657644   -0.35984002481595    7.67460067774455
C         1.45942826318958   -0.08739849834684    3.95791642947175
H         1.89138003865999    0.59035508088866    3.23828954395875
C         1.06971635417155   -1.34401603960207    3.54032155731463
H         1.17916167573804   -1.62395746872558    2.50345039673387
C         2.47643637955582    3.85956711706733    5.39319647502278
C         1.31868200161040   -1.16411484025791    9.87455631204729
H         1.87009484547598   -1.86077740918093   10.48739772770819
C         1.38357146547470   -1.24928148012973    8.49727735352215
H         1.99494594939961   -2.01130083280262    8.03552184332661
C         3.69045865424361    5.59768677741708    7.19951577344889
H         4.17675901896626    6.29349890812189    7.86641519244387
C         0.43768483745487   -1.86788038335713    5.78111472938767
H         0.03141859966534   -2.56255381298712    6.50234693707738
C         0.54465718971502   -2.24060642684980    4.45516504904074
H         0.23113270778712   -3.22477943720290    4.14195106044625
C         2.83610033917983    5.15647541269436    4.97101706601478
H         2.65767051443674    5.46437985065550    3.94855418625909
C         0.52956993664172   -0.18613604327126   10.45535932138685
H         0.45062599949652   -0.11567548034820   11.52970996404101
C         3.43217529769304    5.99904277926759    5.87477848894578
H         3.71962851005399    6.99405209284172    5.57011361544475
C        -3.64472326462004    4.15664135770428    4.77660150322619
H        -4.25697300643482    4.43534151957918    3.93224817940217
C        -2.83408677549314    4.72583224507029    6.99247774455535
H        -2.80124165417759    5.39171598303053    7.84546322080935
C         3.32828410157049    4.35698703064140    7.65664888207118
H         3.52044485491265    4.05840183115747    8.67874323778662
C        -3.57743676163038    5.02896005073735    5.88000749968905
H        -4.13210068940201    5.95440150586115    5.84267979397942

