16
CSD_code = DUFWEI | q = -1 | S = 0 | Stoichiometry = C3H6Cl2NO3Pt(1-) | MND = 4
O        14.49727728060013   -0.22836334124269    2.21299941477748
C        14.93954876179984   -1.39109211880857    2.03256872334533
C        16.48459506607663   -1.48959548557916    1.68823115489918
N        17.20159518690145   -0.38008316288715    2.32110492786770
O        14.30427395214526   -2.43334649022508    2.07926193347093
C        17.03364054070535   -2.84990805332329    2.09855607494971
O        18.37511526257362   -2.97527902437760    1.64920906003016
Cl       14.45964793302508    2.98223632444922    2.14510569963346
Cl       17.69524305336251    2.71838102520274    2.27703847730868
Pt       15.93375104760240    1.30348323237728    2.22380934038796
H        16.99063480012227   -2.94718202540692    3.19441323303044
H        16.39100208701423   -3.62245284741223    1.66311645851674
H        18.12439349783375   -0.24585606251013    1.90797932093369
H        17.33648909038034   -0.57682434743640    3.31433771473677
H        16.57673895794920   -1.38066516805629    0.60110795464260
H        18.66215348190769   -3.88235245476420    1.78526051146953

