49
CSD_code = DUFXUX | q = 0 | S = 0 | Stoichiometry = C12H27CoN3P3S3 | MND = 6
Co       -2.13286281712290    5.02415945603177   11.65042514004232
N        -3.60964293436969    5.34681688214919   10.57515830030754
C        -4.74570796944669    5.15133498722277   10.31517487366148
S        -6.23526334287182    5.01289322546437    9.82462312479365
N        -0.99890146696936    6.13785565367210   10.71203030854071
C        -0.58119313366416    6.99261616385338   10.01478806353416
S         0.09862832427704    8.10908589351954    9.13179795939613
N        -3.13502954688515    3.88621076306362   12.69911655350735
C        -3.78340292818739    2.94031297481316   12.97885296878150
S        -4.57649758105582    1.68288544965319   13.50147622602270
P        -0.58623752693750    4.38133998992613   13.13468471751174
C        -0.99308731463107    4.67815917338498   14.89349065159332
C        -0.28028778214441    2.58131321984753   13.25846312798236
C         1.11257162301122    5.05597948737475   13.01187320513516
P        -1.61464404471105    3.55259430983222   10.02009005189541
C        -2.30461708162038    1.86532004554322   10.13086463187937
C        -2.19965372015431    4.06869544995306    8.37346652502415
C         0.15647339195228    3.28771743348454    9.62146857235234
P        -2.79462850200385    6.91888564775798   12.68538754987389
C        -4.00493975077353    6.75689774198643   14.04355435944603
C        -1.51394285325509    8.05082744999430   13.35206994979585
C        -3.65423037711717    8.08504366258825   11.58016591172680
H        -1.11413081342590    5.73778122382090   15.10259299980198
H        -0.19535420547931    4.27441608407300   15.51784406463249
H        -1.92590015092246    4.16095169124939   15.11305398475679
H         0.07400133027028    2.16860777434858   12.31755319307950
H        -1.21672382043059    2.09499188034707   13.52857575913177
H         0.46269963082751    2.39927261868080   14.03574765202818
H         1.53254473236628    4.79412359698414   12.04267300057852
H         1.74189241485299    4.66024040770671   13.80854394464655
H         1.07047732075759    6.14168007402957   13.07610611662247
H        -1.93339917324119    1.34882461542258   11.01327371782575
H        -2.04997069043394    1.30275689743373    9.23258046100410
H        -3.38757702757425    1.95323480844882   10.21438751102317
H        -3.28636426960187    4.03259246773786    8.33903662924024
H        -1.78023967529018    3.39932155375990    7.62134327198765
H        -1.87489337028116    5.09045273395344    8.18374017343656
H         0.72047796859849    2.91939355810904   10.47403487214559
H         0.57102479409547    4.24590605578260    9.31097084231336
H         0.23339147714069    2.57400152445634    8.80139675784660
H        -3.57629067795584    6.21298936644964   14.88180312646157
H        -4.85366671135572    6.19078131056103   13.66130186715050
H        -4.33427540269717    7.74463621313077   14.36598939774528
H        -0.86890636078486    7.56175795951847   14.07697915183243
H        -2.00213505744472    8.90587364623128   13.81922394795690
H        -0.90640199048036    8.39177801740284   12.51468787568788
H        -4.61063016105400    7.66722775826497   11.27322521372926
H        -3.04363636062992    8.25432910256190   10.69461767100283
H        -3.80991641513224    9.02643199841930   12.10859402351019

