84
CSD_code = DUFYIO | q = 0 | S = 0 | Stoichiometry = C41H39NP2Pd | MND = 4
Pd        6.55274449000817    5.03034908664082    3.63505056114107
P         7.71201079332555    6.91952705117126    4.32589189736836
P         4.70655065616160    6.17077190484426    4.44547677474880
N         7.89708400124266    2.77929875715386    2.47478414270387
C         8.06601231120366    4.11891940039457    2.74543498993080
C         9.32719644202187    4.49187096859333    2.35175867079335
H         9.76508540713672    5.47408747092278    2.43757852621765
C         9.96676589000504    3.34088808553601    1.81747239373151
C        11.22946866493084    3.09532156347045    1.28036552565374
H        11.95421118287448    3.89433878046639    1.20444930223888
C        11.53286468244244    1.82127144308128    0.85508879031288
H        12.50785268591123    1.61319419850590    0.43606567371103
C        10.60474848863571    0.78157191240929    0.95504285804487
H        10.88113043558190   -0.20595353400299    0.61274810798590
C         9.34784867843197    0.99193371892598    1.48216855513875
H         8.63498281671084    0.18308715029316    1.56289657735407
C         9.03150320613766    2.27447040289994    1.91131894070359
C         6.63681028597758    2.14543284692334    2.74013457455718
H         6.80671019262968    1.24544823888842    3.34939748697513
C         5.86675996022196    1.79847963987474    1.44823886198170
H         6.50170857521900    1.37481291509336    0.67116411837833
C         4.67462909556579    0.92058394805798    1.83903009845409
H         4.19565704827461    0.50869620669769    0.94993422990604
H         4.97610355301440    0.08748383778316    2.47426906356990
C         3.74251223024137    1.90876614138398    2.56780075344964
H         2.77892717063179    1.98925411658376    2.06147606776256
H         3.55325318695182    1.61819924175980    3.60144963514117
C         4.50916026898938    3.23993118469827    2.48744272557987
H         3.85629622982285    4.10838281608155    2.63578201299653
C         5.18752228864005    3.12667092003435    1.12023017398602
H         5.90957284135034    3.92836621913280    0.93250442591390
H         4.48605125784619    3.05590280685461    0.28963344092615
C         5.71603211607682    3.18285703377992    3.43328524581385
H         5.41343820580427    2.83294718798429    4.44074869533361
C         6.74565406513596    7.43305950395172    5.83214762495765
H         6.83759239305487    6.59821905599547    6.53922915955370
H         7.17192659416354    8.32561721944368    6.29816572511311
C         5.28034352767128    7.63591258539818    5.46088761128259
H         5.17358111071574    8.53312558032081    4.84185457135421
H         4.65869120276120    7.75388083065088    6.35291201994418
C         8.16444174174682    8.48587042605356    3.51617339825951
C         8.13608019635900    8.46548209083064    2.12450747884197
H         7.86060701970899    7.54361800775184    1.62380322325679
C         8.46287779042554    9.59727953652856    1.40118062632168
H         8.44171765797702    9.57587979240004    0.32161899252485
C         8.81792735633134   10.75917394910449    2.06668917418284
H         9.07310842783523   11.64690174083461    1.50691510831984
C         8.84951214576270   10.78502094212397    3.45218509447057
H         9.13234910089521   11.69147542611696    3.96806245993641
C         8.52441371335300    9.65412364097499    4.17916989329962
H         8.56085054514051    9.68232232414591    5.25930282062234
C         9.22084609497406    6.33796966568677    5.15773029062996
C        10.42798598466388    7.01912944245935    5.21181769948878
H        10.52638482296840    7.98910898037487    4.74451026486202
C        11.51257099735678    6.43970013855727    5.84955324397766
H        12.45491865825518    6.96682852857239    5.88768283126220
C        11.39652812521795    5.18732162696598    6.42703096410037
H        12.24862471454589    4.73878096852308    6.91599937600361
C        10.19347548226488    4.49930592703621    6.36483515962643
H        10.11072622704189    3.51468419275134    6.80092024218046
C         9.10972858879875    5.06946507121594    5.72841667900290
H         8.16345622444930    4.52085852533531    5.63615306036859
C         3.18933616001694    5.65235491917860    5.30612648069892
C         3.27115509635815    5.37841329036181    6.66947919242191
H         4.20490794193027    5.54550690715195    7.19229021972717
C         2.17512373535058    4.88661310469990    7.35148545734272
H         2.24405967294302    4.68498001939310    8.41068256950559
C         0.99113726620177    4.64262307720957    6.67379832609589
H         0.13423081767253    4.25654609012405    7.20552624131411
C         0.91301533990408    4.88090138974701    5.31172706005489
H        -0.00437833311454    4.67631368041018    4.77930984912828
C         2.00771108769203    5.37558603206089    4.62633122778790
H         1.94350582507477    5.55320195247891    3.56156189505152
C         4.09214538571524    7.06227415912476    2.97915023213738
C         3.05130752151433    7.98407280149280    3.03816723596333
H         2.53604042543901    8.15428693995954    3.97416958476453
C         2.67841286085907    8.67338030777910    1.89917688313951
H         1.86684494950503    9.38525826915388    1.94351048763236
C         3.34405402988430    8.45540803661925    0.70255743008492
H         3.04784484299565    8.99805747697175   -0.18303765627588
C         4.38732483653196    7.54618709825279    0.64166681834153
H         4.90697930371631    7.38001965211022   -0.29046005630533
C         4.76128248271107    6.85013975980357    1.77724922291947
H         5.58583290284208    6.12379565313605    1.74816260626420

