44
CSD_code = DUGBIS | q = 0 | S = 0 | Stoichiometry = C17H20Cl3N2PPt | MND = 4
Pt        2.34848225221579    6.24597310523595    9.18567838989514
Cl        3.08189480567092    8.05646184180913    8.02667663824683
Cl        3.85469100054803    6.66812834877855   10.81673946973795
Cl        1.50952256928963    4.28424812967191   10.30202535347215
P         0.71887339850332    5.60920343484386    7.74091065322467
N         1.73916493136003    3.10453298977985    7.45749834149261
N        -0.30095695417905    2.92490357098316    8.25129101591310
C         0.68992863909082    3.76878315501348    7.93248230838848
C         1.60136033578239    1.67430556054799    7.67044561080693
H         2.41315319208188    1.30359788258205    8.30083664165686
H         1.63066464064506    1.15196409671544    6.70845989424922
C         0.23716084376236    1.57037401411137    8.35838694779382
H        -0.43772835395359    0.86533091242708    7.86857326402930
H         0.33748773340098    1.30163811874252    9.41448986789808
C         2.98514656572803    3.68292498250985    7.03699082426370
H         3.73676808171391    2.89943415100993    6.97735872640011
H         3.32266280402264    4.44151901750650    7.76605160139091
H         2.88736066341211    4.16260725948929    6.06032534066934
C        -1.42824786119738    3.25568213283304    9.08517137253079
H        -2.03696495358321    4.02377584633893    8.61446545762459
H        -1.08232358413045    3.61408216466080   10.05898075422909
H        -2.02994501092963    2.35938707040869    9.21888350914769
C         0.65312936462623    5.70422920406628    5.92064665242665
C         0.05006021001358    4.73158381618838    5.12646245962958
H        -0.38578168840522    3.85056200006777    5.57953102196561
C         0.01045141586719    4.89670802963731    3.75376228514886
H        -0.45727519255241    4.14366265526730    3.13603228753883
C         0.56620115293620    6.02532542709384    3.17095469098412
H         0.53036669436515    6.14728612604530    2.09866130174612
C         1.16977096004930    6.99073755839881    3.96035464207056
H         1.60828956575387    7.86587843072427    3.50590847192812
C         1.21687735218118    6.83310436972094    5.33455773931032
H         1.70553253742362    7.56330793207628    5.96713517481592
C        -0.91937346479130    6.22927970537676    8.22323704797332
C        -1.00073638712666    6.84707556425413    9.46881658433408
H        -0.11373049353433    6.89502475495724   10.09463408438499
C        -2.19315308436175    7.40416416581840    9.89236342032444
H        -2.25250860610188    7.88032463298843   10.85907290332518
C        -3.30510422018410    7.36327109625582    9.06668605924271
H        -4.23564241612084    7.80403414615961    9.39140418507071
C        -3.22142016609665    6.77379286377771    7.81440414927455
H        -4.08466413880001    6.75965588027152    7.16539807643074
C        -2.03294573711186    6.21085657369500    7.38579816864009
H        -1.96799939726787    5.76467728108650    6.40355661046288

