54
CSD_code = DUGBUE | q = 1 | S = 0 | Stoichiometry = C17H32AuClN2P(1+) | MND = 2
Au        6.51139192222030    6.02594474464535    2.70039347300220
Cl        4.47342255423664    5.99967519910804    1.74717221906531
P         8.58974724242915    6.10766343155880    3.60405130086568
N         7.84402478931750    6.70260115234231    6.25071851392559
N        10.01245612537765    6.56668799333983    6.04089729648263
C         8.84444726591110    6.46051127102829    5.42257934004070
C         8.32407890424103    7.01025780743139    7.59471109839422
H         7.91048816178424    6.29244001132739    8.30795284908176
H         7.99068860383247    8.00998656151136    7.88569014935193
C         9.84261027393296    6.90515039670012    7.45047208254737
H        10.35965023823882    7.84303601192093    7.67073224576353
H        10.27720013592353    6.12014334271036    8.07580526357011
C         6.42527423733427    6.72218320748095    6.04064703775462
H         6.03415079661369    7.72041535942784    6.24762168934256
H         5.94524453094050    6.01719371096252    6.72196228457811
H         6.17163530870038    6.45197941998444    5.01383493386328
C        11.34851780867168    6.33596755811344    5.57273860483191
H        11.79749670334849    5.50814210557826    6.12772168534842
H        11.95540099005666    7.22783687216276    5.74472027934284
H        11.35681132232749    6.09551109067265    4.51564506390949
C         9.50036627271593    7.56404867847453    2.90855082926972
H        10.51587602683607    7.64334746175653    3.31116075823231
C         8.69295552841088    8.80811222247304    3.29711984819605
H         7.65846944586986    8.68108669215875    2.96101723916180
H         8.68196871848844    8.92895595360142    4.38585014517692
C         9.27890638475749   10.05658316718544    2.64269528721766
H         8.67694829064188   10.92328557339846    2.91694057853105
H        10.29425835192780   10.22279822641368    3.01074663637163
C         9.30491231420256    9.89432338160362    1.12702489143117
H         9.72771855619221   10.78693676881193    0.66674669850535
H         8.28585920890017    9.77544393432398    0.75493822685362
C        10.13448751821482    8.67401725591533    0.74470135886865
H        11.16736779288784    8.81732322899235    1.07113559059362
H        10.14108767824567    8.55016773658636   -0.33820323356146
C         9.56752872720476    7.40993043573093    1.38869359515146
H         8.55952618159515    7.22506979836873    1.00131553438869
H        10.19856314500616    6.55739974583725    1.12493513412805
C         9.52470616353374    4.52543452907656    3.33951627704450
H        10.60306147930802    4.70073029637930    3.24800806325853
C         9.02125957496899    3.91270682023054    2.02713802560487
H         7.93830507252212    3.76614040376763    2.08921939671572
H         9.21621693840567    4.58198442923316    1.18696089089554
C         9.69461647597112    2.56434925590617    1.78160024757450
H         9.32284311084358    2.14451417599821    0.84715066424176
H        10.77334973156393    2.70367805391817    1.67957414895521
C         9.40503817536277    1.61029946600262    2.93486989797399
H         8.33166295697595    1.42010184325410    2.98901516309275
H         9.90488906712461    0.65740436715654    2.76298802017682
C         9.88445701105905    2.21289292937937    4.25087817558552
H        10.96938231303179    2.33912375816561    4.21956071280929
H         9.64998236101837    1.54092477622745    5.07724131535459
C         9.22574938052159    3.56880361474529    4.49883341029019
H         9.58547319981487    3.97684530587077    5.44769468512640
H         8.14136893038962    3.43840846487840    4.57631437578438

