87
CSD_code = DUGCAJ | q = 0 | S = 0 | Stoichiometry = C37H40FeN2O5P2 | MND = 5
Fe       -2.05048586073867    0.95206543148473   12.21090871076134
P        -3.07578662905448    2.71628617191785   11.59235822646342
P        -1.11749731984932   -0.81717263382957   12.94418984550609
C        -3.38479791730204    0.04743196243805   11.48255046695719
O        -4.30589424231206   -0.45275111961376   10.99171005700205
C        -2.09017218674206    1.55698443626415   13.87363644685723
O        -2.11315337793040    1.94946322463297   14.96120651281046
C        -0.62124338136348    1.26284654301640   11.20817899080210
O         0.35129918566065    1.39579721674263   10.59693112478604
C        -2.32283222445753    4.35411869817448   11.87805424436073
C        -1.01229013294205    4.45078959510263   12.32621070244888
H        -0.45742913051465    3.54273040936139   12.52575614127256
C        -0.43304153642127    5.69379179976368   12.51674510827296
H         0.58703136189153    5.76424789094507   12.86494290699853
C        -1.16140372845811    6.84384878048345   12.26492152496309
H        -0.71040011122301    7.81373575221491   12.41454678114667
C        -2.47423051601876    6.75286822802454   11.82610231490316
H        -3.04428743827488    7.65092675637474   11.63683786647969
C        -3.05573265875373    5.51487356937138   11.63337393139560
H        -4.08348508376612    5.44093399664988   11.30123207670418
C        -4.71632614806480    2.99908875258021   12.34861315971627
C        -4.77666793946315    3.63922129521413   13.58585068715478
H        -3.86470057859376    4.00917203081422   14.03628508130205
C        -5.98726822136489    3.80105172250258   14.23125909343827
H        -6.02381658730352    4.30147051447390   15.18794524104046
C        -7.15167751712227    3.31871656572877   13.65447619485030
H        -8.09858412361185    3.44607863309774   14.15818995843210
C        -7.09772977407243    2.66609121532577   12.43461530877717
H        -8.00253588236925    2.28083824138199   11.98689867884056
C        -5.88700259632416    2.49980844065189   11.78514428364894
H        -5.85819255638983    1.97421485410026   10.84146374637543
C        -3.45955496963301    2.84186378885176    9.77844169574600
H        -4.12038327846002    2.00539586026854    9.52742653367345
H        -3.97340855555359    3.78396040544853    9.53305977478928
N        -2.19273850689119    2.68687903508290    9.09114649901658
C        -2.23594635076279    1.71529503657568    8.00932367586402
H        -2.91616820774530    2.04442989336039    7.20323349418846
H        -2.58593258229858    0.75993858697843    8.40645989243294
C        -0.83091237772636    1.53720670580535    7.43271178343550
H        -0.17265143164365    1.12541688309348    8.20991853258663
H        -0.85143709966432    0.86112999533853    6.57577417447698
O        -0.30833554536071    2.75843574009529    6.96738139841680
C        -0.25959518448875    3.69370196472628    8.01864385318138
H         0.15115999083759    4.61283011696820    7.59744973994769
H         0.40020179519384    3.32747714433562    8.81754695259269
C        -1.65091244279041    3.94216034108211    8.60032524047647
H        -1.57751010027937    4.64966015773933    9.42782488256531
H        -2.29886642187655    4.37353139496842    7.81501033421258
C         0.41796438461948   -0.57847748525836   13.90728006772145
C         1.66009342283820   -0.48248638918766   13.28616950821513
H         1.74512791488568   -0.60532857996327   12.21579348239646
C         2.79413200072078   -0.21948902318298   14.03387879460382
H         3.75518838249355   -0.15383140840977   13.54441600666105
C         2.69933038716506   -0.03469857280855   15.40297597428368
H         3.58649068528456    0.17177034744865   15.98337783152827
C         1.46299159321222   -0.10565850360554   16.02490320899415
H         1.38337146005330    0.05067734642659   17.09082961598898
C         0.32815009528793   -0.37175095342464   15.28287786010532
H        -0.63904790230102   -0.42119690964759   15.76585323390674
C        -2.02592108850791   -1.91948847445272   14.08050437684706
C        -3.36570130005897   -1.68503260941498   14.35906663766536
H        -3.85315898490905   -0.82822111231127   13.91095360513739
C        -4.05945129056053   -2.53569514635128   15.20298028193616
H        -5.10197055903518   -2.34954740020987   15.41579457322238
C        -3.41686648000410   -3.61991369183147   15.77549952075460
H        -3.95725551719711   -4.28351341700888   16.43435281031881
C        -2.07506120788748   -3.85190924785943   15.51018333283652
H        -1.57203209035890   -4.69334547573217   15.96430527421417
C        -1.37942892811322   -3.00642185582036   14.66829188787649
H        -0.32924696810368   -3.17840960032358   14.46942271795715
C        -0.57345936464124   -2.03914015259274   11.65332344575756
H         0.17438626471864   -1.53671140640499   11.03040213216977
H        -0.11497384996745   -2.93350024910234   12.10224000458148
N        -1.74863014811316   -2.33780462035955   10.85994961064367
C        -1.51884499548970   -2.24418888561194    9.42663624472304
H        -0.79076898659815   -3.00296804699684    9.08774289153358
H        -1.13366776257411   -1.24857714308036    9.19533610246182
C        -2.84041120589103   -2.45846539493399    8.68780592323141
H        -3.53830520438727   -1.65411816802555    8.95848251672063
H        -2.68050624687017   -2.45533014853655    7.60787918196904
O        -3.40919358713073   -3.70582874305879    9.00549039362720
C        -3.64044877916546   -3.79075771341027   10.39189645985758
H        -4.07732867510548   -4.77412048541677   10.57371809453339
H        -4.34802226343608   -3.01000057952631   10.70343513202349
C        -2.34112558558385   -3.62516827858047   11.17951215279674
H        -2.55775238132616   -3.66439987541225   12.24835122307061
H        -1.65421911535760   -4.45233397219054   10.92137401491934

