43
CSD_code = DUGGUJ | q = -1 | S = 0 | Stoichiometry = C4H22B16Co(1-) | MND = 11
Co       13.89188471857691    2.88140903637650   20.33970385931660
C        12.85482609670035    2.50839004475282   22.09570215569623
H        13.56569668642578    2.15619225316351   22.83506568064988
B        12.18817902670415    3.68515967602454   19.27309272618448
H        12.36506430168564    4.24509467742448   18.24263801819419
H        12.59338244351386    4.45147001306124   20.26619457570949
C        12.31443492136380    1.50754581918663   21.12309010809186
H        12.69345353132522    0.49276509355633   21.21921377238808
B        11.92324997877266    3.73788073404928   22.29595558250753
H        12.08568757150216    4.44811135134685   23.23050576983574
B        11.37795912695910    4.50998363301360   20.65625654002995
H        11.04821795027018    5.65259827355430   20.63959039409216
B        12.01176595525492    2.04430265966977   19.56057235703546
H        12.07083531856224    1.20412894073228   18.71913315535130
B        11.23388447926683    2.06522743831241   22.35735416075816
H        10.97921735915613    1.40633992657036   23.30402221128979
B        10.57986326026875    3.18776631288366   19.76896192156669
H         9.68262472078613    3.33507899065036   19.00395058634638
B        10.66965355950696    1.74991883507548   20.73644860957237
H         9.95998436488259    0.80926441391006   20.59912668626710
B        10.37955791942748    3.35265801047067   21.54557721425659
H         9.33830632849424    3.74167227434913   21.96268022286441
B        17.18710089899045    2.43756921504735   20.00362254599457
H        18.10274443610504    1.69767825710719   20.15836189357295
B        17.32006363342255    4.04026148748670   19.24699466667759
H        18.25418078810146    4.59604795288128   18.77331583821356
B        16.58582928105275    2.72162143939325   18.37766828382654
H        16.94948811770744    2.32418540783585   17.32514291941511
B        15.51015783870638    1.89598609602982   19.57984185501267
H        15.21993539723488    0.75984265601916   19.39304251306562
B        15.88745569183390    2.54027906377237   21.19694568937705
H        15.98378604919515    1.80944305015831   22.13382183708463
B        17.00669294489078    3.94471525752914   20.95031086607043
H        17.82483663040511    4.29824056461655   21.73619888594209
C        15.78632256097483    4.25129392020630   18.50656299899612
H        15.68848895218641    4.83370489771228   17.59181938900560
C        14.93766840521599    3.02442682356646   18.59468260125113
H        14.33149332628736    2.81619478435391   17.71829585586177
B        15.29282396209943    4.08772579842659   21.39533800792326
H        14.98146509774101    4.59711617774696   22.42056915894296
B        15.98603607414315    5.06366041510111   19.92853109651199
H        14.83348630598753    4.88518124419083   20.47842896343322
H        16.15381398830781    6.24056708267864   19.86726782581416

