37
CSD_code = DUGJUK | q = 0 | S = 0 | Stoichiometry = C12H19I3N2Pt | MND = 5
Pt        5.29127776069942    3.94241411628075    2.51795476082581
I         6.33640304926083    1.71039654339826    1.58493024881208
I         6.84740561223395    4.50286633088428    4.92225024664249
I         8.53977109708710    4.71330641825721    7.13711113939883
N         3.64411279118321    3.08015145240289    3.58617960105722
N         6.38263955671421    5.32343081844185    1.29309046162047
C         4.33395765789033    5.58554768196320    2.98178335218632
C         3.18767872091797    5.49051009579026    3.75206315142707
C         2.41427587283646    6.62678324780914    3.93570764859214
C         2.81470965571310    7.82211112476786    3.35443525292976
C         3.98980604095444    7.91600607963872    2.62153434975823
C         4.76512487669061    6.78154768680452    2.43430057916459
C         2.98660827938803    4.14343024236863    4.39341661234588
C         3.94271659009075    1.92740747915286    4.43511213863143
C         2.72933998902749    2.66982499249434    2.51362298070853
C         6.11639116380605    6.70597031808030    1.77491073657718
C         5.76261534528086    5.15760808393447   -0.02737495890656
C         7.82450387464314    5.10664563844607    1.18205139654719
H         1.51418224479919    6.58818782234902    4.53225056497189
H         2.20874754025267    8.70469699389418    3.49400047003645
H         4.29880093172926    8.86633512215463    2.21057776980866
H         3.46836003259307    4.16797125611892    5.37728405278658
H         1.92776654350777    3.89701995807321    4.54301126138575
H         4.68326862385153    2.20186666125588    5.18634326870254
H         4.34814126484964    1.11533413932275    3.83289323971887
H         3.03865235802185    1.57086641797447    4.94001327320738
H         2.45124627006366    3.53542479834346    1.90828019714336
H         1.81676212985628    2.23233270042466    2.93574003894572
H         3.20295106338167    1.92204685083381    1.87592645402209
H         6.22537168685169    7.41686661073275    0.94602904175689
H         6.87068657572378    6.95241462834458    2.53048587316865
H         5.89951106997017    4.13632843043164   -0.38578684396181
H         6.22038123122289    5.84020982230300   -0.75317863136025
H         4.69457298469354    5.37878200674252    0.03108063363828
H         8.02247715043819    4.12698330746933    0.74889246233126
H         8.28251901127897    5.14492569349579    2.17038020511882
H         8.28536335249628    5.87014842881989    0.54629697026038

