71
CSD_code = DUGJIA | q = 0 | S = 0 | Stoichiometry = C28H37ClN4Ru | MND = 9
Ru       12.38231938360216    6.86910741396240    4.47654467095925
Cl       11.61442240206719    4.64407095136243    4.55923263466140
N        11.03799636518151    7.06326414224810    2.91798964097067
C        14.17829702147098    5.83708845731675    2.04624347913108
C         7.53515964896166    7.22260294804111    3.96211711381079
H         6.97689173530527    6.95754300536498    4.84459467883328
N        13.02457105409589    6.38378303513351    2.57221618245317
N         5.52937687765265    8.04245840241624    2.86124807438680
C         8.89231477615795    6.99588770891005    3.96119482132206
H         9.37460693975658    6.54772917948725    4.82054821489847
C        14.96932976294371    5.03162974476079    2.86683839924059
H        14.61704382999270    4.82204248066293    3.86880395870832
C        16.15271508046898    4.49387582236038    2.41472129803786
H        16.71979037298471    3.87525407899918    3.09034795842742
C        14.63942708172674    6.10745635503920    0.75779999531377
H        14.07491510282022    6.76137012369591    0.11003956198730
C         9.67687211772889    7.29312587890157    2.84562754534861
C        11.83701071699050    6.53176094684669    2.00560563057079
C        11.43885816462952    6.04876619549785    0.64476097079893
H        11.54880573004217    6.83589879913981   -0.10052150193413
H        10.39780462576602    5.73266820891079    0.66780977090943
H        12.07115816460885    5.20910505289171    0.36343537482921
C        16.61157836388981    4.73611440832821    1.11155382862877
C         7.68508980166126    8.08723836176948    1.73949285112360
H         7.24864070589543    8.51912293776950    0.85377876313071
C        15.82599157007359    5.56839960890903    0.30445353327517
H        16.13513697226643    5.80806932435660   -0.69974704674368
C         6.88793614730021    7.77464203774440    2.84706905786801
C         4.87011076238038    8.36320350954018    1.61779789337368
H         5.27683719743527    9.28823208906252    1.20541615974000
H         3.81008611785128    8.52292207290236    1.80409495623968
H         4.97433310983585    7.56836324923798    0.86782814009283
C         9.04652883830368    7.85870990006537    1.73793314818129
H         9.62697030420400    8.13525086198162    0.87073459615405
C         4.71441198399846    7.43804883543301    3.88916838109304
H         5.00538523789112    7.81672947561427    4.87064085060677
H         4.79282089655405    6.34365360177700    3.89797852698859
H         3.67282849821936    7.70711828380788    3.72669391549507
N        17.76999721352679    4.15423201899993    0.63060906563955
C        18.64697391477680    3.46581626919374    1.54571270983406
H        18.11523458550580    2.64317323886737    2.02637310084575
H        19.04889380661569    4.12759123385730    2.32435025832886
H        19.48177246935711    3.04120713373056    0.99169386987129
C        18.35631041503404    4.65986389917155   -0.58721786232993
H        17.68514044420453    4.48660790262774   -1.43108123751057
H        19.28438100376709    4.12915512329973   -0.78803158316198
H        18.57769785169616    5.73332674671664   -0.53060366838333
C        12.35539774536642    8.96894507289070    5.18360376920978
H        11.89766069245870    9.85897531910652    4.76787156422646
C        13.69009857760452    8.64268686705018    4.85745652009644
C        13.54933089475018    6.73896742792746    6.40962613523794
H        14.02196393213262    5.90495721228970    6.91828158056843
C        14.27695998558802    7.51272618634093    5.49642413484010
H        15.31850302123609    7.27795955920701    5.30118582459362
C        12.20170323408187    7.08139517475626    6.74453098866588
C        11.62762094790522    8.20922147846653    6.14079703421228
H        10.63109803773002    8.52879910663221    6.42555546738485
C        13.78613425908015    9.82933821250886    2.63679669228412
H        13.42075143162531    8.90937829593225    2.18345198718742
H        14.46204436479286   10.31839730453203    1.93892246792576
H        12.94055959672950   10.49007438466431    2.81204845240299
C        14.52006340746381    9.50880955388521    3.93948368871412
H        15.43037806559148    8.95348177112086    3.68399988721300
C        11.44860029740777    6.24140183988075    7.73215508697795
H        12.04129798870491    6.08053693287111    8.63223097683328
H        11.23843089923200    5.26679586285430    7.28521229386920
H        10.50430938977027    6.70804087991904    8.00434051772597
C        14.92450398876721   10.79257107648327    4.67235700206351
H        15.47118363351193   10.55754300518492    5.58355074121448
H        14.04397144319136   11.37300567936014    4.94001267223639
H        15.56005899808755   11.40371073941539    4.03581383227195

