76
CSD_code = DUGMUO | q = 0 | S = 0 | Stoichiometry = C29H35CrNO10 | MND = 9
Cr        2.59405584600294   10.92468690340303   13.62416868058586
O         3.46803373972706    3.46934553809194   11.80738589629338
C         2.52475014166658    1.20715636148645    6.74467980246254
O         2.09499175633478    2.04334409739738    5.79251599235680
O         3.37185716633620    6.31410182110489    7.22858056928891
C         2.43059089629934    8.18805948345781   11.57942131945086
H         1.53778243631476    8.53207552536394   11.05786023445940
H         2.06813104122413    7.57163669353678   12.40357126976035
O         2.66021045790971    0.02103496511461    6.56051227350138
O         0.42999259681718    9.39459965801810   14.97051676034597
O         1.79325750081199    5.49858487517678   11.22228338252951
O         0.27527151550882   12.70918723052365   13.09684353245432
C         3.20501999885721   10.59412153114305   11.45291842267262
O         3.37277978768745    3.61220347892086   14.07357092595191
C         4.74345882254035   10.27040128288104   13.79825573765990
N         3.44872636445311    5.11091151337355    9.71907518235213
H         4.03078061898762    5.57625941208931    9.03373677988572
C         3.21798941703757    9.35644957834439   12.11746256580982
C         2.73776957265333    5.89331361232233   10.57684587065468
C         2.98541238479032    3.23505498163964    8.22340929164859
C         1.82475807517505    1.44872164267587    4.53263025786859
H         1.48358689323537    2.25174442626955    3.88387123005792
H         1.05389423070706    0.68078770544792    4.63188821785428
H         2.72790915612120    0.98539703151771    4.12897001692640
O         3.06471584569996    4.00335720188777    7.09052472263115
O         2.41594140850720   12.37465279010134   16.21303824059999
C         3.88001345316664   13.02832155110842   11.28909289273792
H         4.64834005929946   13.10678221608903   10.51583188544237
H         4.02073728571977   13.83830370633611   11.99967380854542
H         2.90971264072007   13.17667822506800   10.82331515744095
C         4.30809305668782    6.44467552378335    6.17259145544412
H         4.98044607034910    7.25163271488631    6.45610523988635
H         3.79862583099870    6.69797169868664    5.23783313484400
H         4.87193878703131    5.51842887169970    6.03503843705206
C         4.01241205326374    9.18436277592198   13.28744395404521
C         2.46278350026948    5.26985891693862    7.03804029776038
H         2.01668410375423    5.33808867849240    6.03379705320707
H         1.68482499556488    5.38597991537763    7.79983469262922
C         2.97772749750419    1.52299642837727   10.44125710018682
H         2.99093695414274    0.84725840680875   11.28023802393803
C         1.19139920617250   12.02074770729037   13.26930018981085
C         5.67685093595006   12.61202544330095   13.57813291715676
H         6.60216912187425   12.18892442523717   13.96367649606722
H         5.22071728015488   13.21040150839391   14.36741249370295
H         5.93996147753494   13.27408455689555   12.75728878207859
C         4.74544813845553   11.51903190624773   13.11868150572736
C         3.27774550761171    7.31249914712189   10.64522585623910
H         3.31021116233733    7.72253279280971    9.63292835562802
H         4.30741135270945    7.25601379671815   11.00989756609371
C         3.19144805552434    2.88515546954513   10.62511627072992
C         3.19147425246705    3.74418814788704    9.50654574559184
C         4.15241917689248    7.83778145084126   13.95327908248381
H         5.20042688383391    7.63479878229846   14.17330158243337
H         3.78720629229171    7.02478310953342   13.33625549322734
H         3.59933648188306    7.81562088282851   14.89279973491722
C         5.56962396401912   10.10339967026540   15.04597048343729
H         6.58575164671262    9.78177846642072   14.80432017788155
H         5.12700572600951    9.36328223146710   15.70647965751663
H         5.62630969861369   11.03739393989391   15.59861199366913
C         2.52248897696798   11.80777827994047   15.20786650757710
C         1.28313938701480    9.95504895815902   14.42426068176991
C         2.77213333262670    1.85750017523512    8.05491276921870
C         2.78031956901947    1.02686578575939    9.17018842985244
H         2.62638274516749   -0.02926541689463    9.01228690278502
C         3.93894115343283   11.69261918389422   11.98324870025870
C         3.31840803997420    2.73979354447974   13.01505949941376
H         2.36279635680633    2.18464772011690   12.99324664955135
H         4.15948753463564    2.04162262493220   13.13646176644680
C         2.49014335737723   10.77967078069530   10.13771125418548
H         3.11087431403716   11.35117592424270    9.44884024803158
H         1.55287526233338   11.31877304237111   10.27906374458496
H         2.26347276256221    9.83210818228513    9.66033774447479
C         2.19338670035429    4.39361413662825   14.23446463468178
H         2.41105022152142    5.11081897056892   15.02124987493616
H         1.35555310356349    3.75673086524044   14.53734672535165
H         1.93358686167952    4.91042483649968   13.30869917327213

