67
CSD_code = DUGMIC | q = 1 | S = 0 | Stoichiometry = C27H27N7O5Re(1+) | MND = 6
Re        8.98466316134255    0.44892509351157   12.31483639197265
C         8.11580143476400    2.07746659023554   11.67565081639830
O         7.55941719448407    3.01434322587738   11.34684779460985
C         9.25705228974091   -0.15269653573884   10.47838788907526
O         9.37866959047573   -0.55806606689206    9.41890015282928
C        10.71340638593184    1.35691111009660   12.37073081939125
O        11.72455627069797    1.87577042403212   12.45933726162096
C         9.06561675709466   -2.20337142744638   14.29060446736603
C         7.71644418671494   -2.70564363063898   13.73939581079209
H         7.93010146507953   -3.39471552030267   12.91214036721240
H         7.22148934019337   -3.28575099705961   14.52115321939020
C         6.77016412071143   -1.66948871006921   13.23534434935128
C         5.38994057485964   -1.68028882928547   13.28508442074150
H         4.70266340037156   -2.37259830570790   13.72169631835665
N         7.11831971854116   -0.56201769305361   12.54147488203711
N         6.05358828628601    0.08513335260469   12.19228486547420
N         5.00659269585101   -0.57134809594723   12.62436822301454
C         3.67294487454424   -0.15379088467390   12.27612229012801
H         3.71058707392805    0.92698256587098   12.11875757701971
H         3.00007107001359   -0.38088350294632   13.10533937178020
C         3.23763317212734   -0.86106323087160   11.01165708934988
C         2.15422262201064   -1.72649166464012   11.01477890404743
H         1.59431135903008   -1.88965868508371   11.92443527619155
C         1.77996977510304   -2.37100738006354    9.84748584993349
H         0.93126170721150   -3.03725438485730    9.85305717128111
C         2.49348007544300   -2.16236549737457    8.67981001166175
H         2.20154269559864   -2.66708708275314    7.77208170401328
C         3.58113432092696   -1.30389106350915    8.67636900870714
H         4.13836002729712   -1.13750189855157    7.76756143782552
C         3.95306878038262   -0.65301733120346    9.83865081574677
H         4.79959864459878    0.01967833075921    9.84143810165202
C         8.94117387190527   -1.33121153345813   15.55603767691062
H         8.39985274236393   -1.90138457922945   16.31377503932259
H         9.95426295780313   -1.16175464795421   15.94327047624235
C         8.29090594349998    0.00113218438946   15.39326956837533
C         7.48046775205636    0.67057834793976   16.28994860381901
H         7.08944729722046    0.37965948032702   17.24131262236124
N         8.48194080572747    0.84238884403744   14.35029250745247
N         7.84859649655437    1.94850306383922   14.56310421611183
N         7.24631725196520    1.86978302424373   15.72328977136841
C         6.38841546493855    2.93591786186059   16.17936965980950
H         6.90681282492939    3.88017229369098   15.99472777758857
H         6.21549350766097    2.81281128854990   17.24941229008478
C         5.08888767558542    2.90198191365769   15.40535572278460
C         3.90692592224528    2.50693012815799   16.01471922603165
H         3.89994308282198    2.23745588701361   17.06107051762745
C         2.72745816157782    2.48026569614283   15.28854256495580
H         1.80822742648433    2.18669896200114   15.77177265426945
C         2.72711290283543    2.83996616711304   13.95165602616186
H         1.80496175784399    2.82855166874158   13.39060337876178
C         3.91007580794806    3.22229043463167   13.33752721911240
H         3.91522239959066    3.51489358291387   12.29844248880078
C         5.08930182062425    3.25129808834103   14.06024913839416
H         6.01115258607666    3.54916752968969   13.58422340105515
C         9.79327934221803   -3.48981814169025   14.76903276888073
C        11.70537279512638   -4.84278127805837   14.45421819350096
H        12.73183330082275   -4.58055700848085   14.19427625141022
H        11.62153680766158   -5.02593177321570   15.52887763222662
C        11.22237256061090   -6.04807377641810   13.66645129983693
H        11.86002530616490   -6.89754445505141   13.88961860400539
H        11.26488462340363   -5.84975006006650   12.59792369984862
H        10.20124005742372   -6.29831169791133   13.94513377190770
N         9.82879068034567   -1.50766883885086   13.24889960511942
H        10.00261542702695   -2.16557887017161   12.48457577701989
H        10.75525594720230   -1.28669030261051   13.62338500828469
O         9.33848402001861   -4.19818213735732   15.62370714172524
O        10.93657960036934   -3.66821962108228   14.12894503984806

