57
CSD_code = DUGNUO | q = 0 | S = 0 | Stoichiometry = C26H28S2Ti | MND = 12
Ti       12.47660013731119    3.14991125627865   -4.71563633590030
S        11.58429638018429    3.54125393816672   -2.56122032852262
S        12.76458364932289    0.80939708861562   -4.33938379610648
C        10.17004020961336    3.03241415018086   -5.19157413352982
H         9.39792847419145    2.68215517610907   -4.52004327478994
C        10.85498792752754    2.22483295826871   -6.12475176012413
H        10.66978810275305    1.17419347149898   -6.30819025276669
C        11.67830380275963    3.06259427647348   -6.90219606740954
H        12.24819788792023    2.75128838468014   -7.76927975915261
C        11.47170202966116    4.39006749230736   -6.47032505750983
H        11.86627388668752    5.26896571385097   -6.96126529550516
C        10.53822477488778    4.38733298008188   -5.40952590518809
C         9.86361196415066    5.62431803011077   -4.85217007844982
C         9.12353261757951    6.31353479012100   -6.01168276643696
H         8.40694921783847    5.62953851633566   -6.46102551381628
H         9.81680319423377    6.63741558850022   -6.78399624329824
H         8.58690877428664    7.18555597009768   -5.64457674620999
C        10.90129595000824    6.59191911282470   -4.26814049953853
H        11.47999131118483    6.09398662845798   -3.48836458528889
H        10.40211690544322    7.45452253432071   -3.83161076809878
H        11.57692156492517    6.95060134880279   -5.04238105264104
C         8.84218347683462    5.26546101227203   -3.76958133249011
H         9.32199455327097    4.74011624784157   -2.94740192435284
H         8.05371534405236    4.63823012456215   -4.17884681445505
H         8.38570211733337    6.17277549703664   -3.37992241827536
C        14.75235305416094    2.78220705947039   -5.27687161804775
H        15.14547634256093    1.86189956823525   -5.68929249914129
C        14.35970332819340    3.91690387392392   -6.00363136947237
H        14.42093140598630    4.03273562205395   -7.07740006287193
C        14.01098972638258    4.92742767989225   -5.08427145827452
H        13.78437630295493    5.95659043470260   -5.32679391179946
C        14.21376116106429    4.42436771240412   -3.78385720848588
H        14.17286327852114    5.00283062501271   -2.86913617099086
C        14.66789097825640    3.09334811106369   -3.90049307292839
H        15.00884849176325    2.46213878557578   -3.08953155019616
C        12.76964330979510    3.23853838859063   -1.28837512034556
C        13.29196995441286    1.96683046525818   -1.07723961279513
H        13.00291965813496    1.15251116113909   -1.72848866077628
C        14.18048012853937    1.75461643981426   -0.03945890332146
H        14.58699797971984    0.76634075610959    0.11842270350700
C        14.54608729380427    2.79797440681509    0.79593667951411
H        15.24213294923980    2.62673936792081    1.60352541624123
C        14.00993750048851    4.05979312449213    0.59737194674766
H        14.28343135792450    4.87468672710489    1.25183326895289
C        13.12114184330832    4.28228997958336   -0.43739518759818
H        12.68704509547875    5.26012697560172   -0.59301243625772
C        11.25013019168676   -0.06736525860947   -4.12200962030801
C        10.28726884574283    0.34651346820054   -3.20669351850962
H        10.45093144302483    1.24355836586288   -2.62283663742482
C         9.13111255482770   -0.39403924835148   -3.04502084837543
H         8.38597508934527   -0.06710973813834   -2.33425358775170
C         8.92737197315504   -1.54937063095279   -3.78237763292725
H         8.02103198739501   -2.12215214384166   -3.65346082027748
C         9.89370426243646   -1.97076338687948   -4.68160468935544
H         9.74464798001478   -2.87484098854401   -5.25409311884596
C        11.05157704287818   -1.23662380457608   -4.85240907117542
H        11.81381323485851   -1.55728618675357   -5.54798891683368

