45
CSD_code = DUGRII | q = 0 | S = 0 | Stoichiometry = C17H19F2I2N3OPt | MND = 6
Pt        1.55528429179518    5.86955206046544    3.00914217180252
I         1.40034481527627    3.87826376459193    1.19568588713120
I         1.86194562565050    7.71767050079340    4.96129996762934
F         5.45750500290414    3.24215269514919    5.73880161673303
F        -2.21442599917755    3.38622128703431    9.87809953295513
O        -1.23010420692901    8.26796338584106    0.86858414601646
N        -0.23161159254667    6.74149113585566    2.35345784863394
N         2.62486293702453    7.05320389615941    1.69465749998532
H         2.10173313890202    7.20597160059448    0.82525822664762
H         2.73319456942589    7.97121175022196    2.14449710173988
N         0.51931411474532    4.67433392449194    4.39579020844570
H         0.61457481304990    3.68915241872364    4.12063652257732
H         1.00948983936242    4.79959197891039    5.28911250765741
C        -0.70091741489587    7.51482778388969    1.59553100147604
C         3.96970408784935    6.49644837298581    1.41433742707786
H         3.87956418600900    5.82290573259147    0.54995772796993
C         4.40532042530606    5.66245405804887    2.60652166642252
C         3.42441884299182    5.18122693998167    3.47662075655164
C         3.78893006523761    4.36797776830034    4.53372357238391
H         3.07855238813201    3.96553760094733    5.24231833960533
C         5.12368617574219    4.04095052921675    4.70800129798820
C         6.10713870434366    4.50545221151864    3.85852190458846
H         7.13623322042384    4.23130898599549    4.02242061943817
C         5.73560409244303    5.31684271676679    2.80286605776955
H         6.49316029428797    5.67497420039114    2.12452877948538
C         4.92727543404811    7.63475080307370    1.07104341545727
H         4.49742512092873    8.26650127879267    0.29543080248077
H         5.86895537077713    7.24697730388653    0.69601817759450
H         5.12925341478608    8.24109938889811    1.95245361485394
C        -0.92005616967293    4.95123316025616    4.64321155398699
H        -1.06937608986606    6.03325546234653    4.55281610781576
C        -1.27406383501852    4.52221509997423    6.04957958499931
C        -1.74811480700222    5.45640524470371    6.96208288617235
H        -1.86584136989700    6.48618407531124    6.66082428965789
C        -2.07052723398659    5.08283683203540    8.25389703604163
H        -2.43998496191388    5.79927448347911    8.96956579153404
C        -1.90607560631003    3.76026797051387    8.62353984740731
C        -1.42974420363671    2.80925263218711    7.73848955469231
H        -1.31265527311551    1.78683076521088    8.06020223850449
C        -1.11400906059867    3.19937464553917    6.45064656451362
H        -0.74867531032940    2.45576109104405    5.75711061415158
C        -1.77670166993225    4.25162370396781    3.59571537284555
H        -1.54788255052015    4.64620411083263    2.60853216737760
H        -2.82692195800330    4.43921882811325    3.79993101745693
H        -1.61048165809522    3.17614582038150    3.60043697374487

