57
CSD_code = DUGRAA | q = 0 | S = 0 | Stoichiometry = C26H24FI3NPPt | MND = 6
Pt        7.49773511619386    7.70518544698715    2.44336323285372
I         8.15235707614569   10.27816621329128    1.65662534620096
I         9.74034787065295    6.57079137199307    1.56396520115928
I         6.17297325696705    7.12800348051353    0.13779991273861
P         8.67635399974170    7.96790687032970    4.49509906736848
F         6.72557542064383    2.41688329379007    3.39329376714290
N         5.63873546809483    8.57542048360022    3.14697744092990
H         5.74581067564302    9.50771820964540    3.55687526694834
H         5.11526437123921    8.69512968328326    2.26981218323677
C         5.36810663557887    6.26060930239875    3.84826299075623
C         6.56264404287820    6.01253366856226    3.16782796741464
C         7.00480759181582    4.71493047171262    2.99640071836469
H         7.90312498504793    4.46978236737770    2.45123321340433
C         6.27202153650830    3.67440171964830    3.54060036392282
C         5.10522046335976    3.89341196406661    4.24586236688536
H         4.55848017908919    3.06302571139430    4.66215568677003
C         4.66107813606244    5.19364709069815    4.39009075723122
H         3.75160418484508    5.38180885231981    4.93947817285896
C         4.87737943912029    7.68275110696660    4.03896390597803
H         5.08451487199010    7.98432854762005    5.07760124696554
C         3.38248028681055    7.84280080708424    3.75770935190747
H         3.14280769933491    7.45333295592326    2.76967277954706
H         3.10380677415558    8.89452254610044    3.80326330748837
H         2.78745235101035    7.30817243010427    4.49131534265852
C        10.21438854392689    8.93201056568038    4.65933309389566
C        11.01350557802595    9.35888681762454    3.60865243770821
H        10.75472294306629    9.14752722414522    2.58467056021325
C        12.17068080870596   10.07393086704314    3.86861333271925
H        12.77990098444205   10.40700025588246    3.04288971075629
C        12.53939445190883   10.35903728092086    5.17054587830915
H        13.44004446107099   10.92004480691478    5.36885065611288
C        11.75127080919937    9.91998721873440    6.22380527312494
H        12.03726982281891   10.13204682045384    7.24336738774107
C        10.59411592536830    9.21082800684504    5.97415291253994
H         9.98374270779537    8.86710329952289    6.79897051983827
C         9.13767494609123    6.36229707130405    5.20410452669892
C        10.46833860788121    5.95345968343250    5.13881420970982
H        11.21688959430272    6.61205012774936    4.72143508326377
C        10.83151836653779    4.69887117014748    5.59120009637717
H        11.86336625598188    4.38910085944309    5.52820950087146
C         9.87613672309961    3.84036180975190    6.10955802283957
H        10.16017667078269    2.85856415804149    6.45597283474482
C         8.55103825382386    4.23805312150296    6.16929106464081
H         7.79908937785906    3.56910281799388    6.56076722881884
C         8.17728511939209    5.48731010125184    5.70954455996142
H         7.13451838242988    5.77024114361647    5.73507911170081
C         7.64009285027987    8.82579260475959    5.73115654059944
C         7.24862288199640    8.27825233047033    6.94893483478539
H         7.57482986381188    7.29020616169999    7.23647760962526
C         6.45747172882051    9.01327643970578    7.81535433767512
H         6.15986758164845    8.57897786389015    8.75828411831227
C         6.05593704480796   10.29692635223190    7.48474994406339
H         5.43367997343665   10.86068697766830    8.16290347484535
C         6.47545492122420   10.86291834033132    6.29152489255758
H         6.19395105737838   11.87413430953946    6.03853097496350
C         7.26660888678500   10.13491940396216    5.42254135372011
H         7.62343144233669   10.59572939241262    4.51036432566457

