43
CSD_code = DUGRUU | q = 0 | S = 0 | Stoichiometry = C16H21Br3N2Pt | MND = 6
Pt        6.89455696677017   -1.25510360819715    0.17564019719484
Br        4.41476760655004   -1.27362218857215    0.80745115956481
Br        6.54636740286166   -2.56484650940572   -2.04578157123149
Br        9.43392532099484   -1.15065999019899   -0.10749190608197
N         7.05330548668945   -3.02232654352623    1.22094660489790
H         6.09850357337474   -3.33898613103008    1.43349177804338
H         7.48534134348857   -3.73469444581467    0.62204573414353
N         6.85011801080267    0.50892338160592   -0.94924107142177
H         7.64623899009434    1.07829117065234   -0.63794117708535
H         7.08621684634077    0.16366618945826   -1.89066294447955
C         7.80590089750332   -2.85383225180669    2.48528774978192
H         8.87483582242283   -2.95812040013437    2.25144475466244
C         7.57984128094110   -1.43743469215654    2.98047597403560
C         7.20089276545320   -0.47058516153058    2.05581492565537
C         7.03046260879019    0.84386518318012    2.42941627872653
H         6.73105973047438    1.59864312700084    1.71567173198034
C         7.24578002468370    1.21222748280147    3.75032912371290
H         7.11451060285663    2.24268208965103    4.04350463970304
C         7.62571627067455    0.26205942347368    4.67909519066345
H         7.79335188163849    0.54740164659389    5.70635796779773
C         7.79593408033143   -1.05716497245052    4.29807683213458
H         8.10250725794642   -1.78967015748633    5.02822305905397
C         7.39302261386607   -3.93569193023068    3.47875004725749
H         6.36728461929902   -3.77784655890278    3.80681617403360
H         8.04064095000575   -3.92403514552183    4.34957674862937
H         7.47191438975046   -4.91907827864967    3.01856287018658
C         5.64852657005148    1.37119526530668   -1.06154783060113
H         5.10685471411391    1.33083013300042   -0.10895096459869
C         6.05058997036367    2.80463095199712   -1.32516886616983
C         5.48966708983546    3.83177782154130   -0.57805983980702
H         4.77026346727678    3.59798308343039    0.19353591419407
C         5.84134838670922    5.14813446880687   -0.81898984143732
H         5.39754956027162    5.93777737255939   -0.23193532234516
C         6.76305810310633    5.45048311336685   -1.80651408061089
H         7.04096497150395    6.47673874949143   -1.99260805941523
C         7.32681451655971    4.43212872228303   -2.55590742411069
H         8.04391185567949    4.66143032592656   -3.32949920523343
C         6.97228185848234    3.11618204434175   -2.31844779366657
H         7.41594377206632    2.33536607899028   -2.91983674347138
C         4.74194376147216    0.84249352343355   -2.16952444402251
H         5.23194877481463    0.92169852929642   -3.13793311418919
H         3.82086391296107    1.41721794863069   -2.20005419424690
H         4.48707137013387   -0.19922886120835   -1.98911906182300

