86
CSD_code = DUGTAB | q = 1 | S = 0 | Stoichiometry = C40H42AsNPPd(1+) | MND = 4
Pd       19.48095439745677   -0.00326844165628   14.22288639551928
As       19.19348634673945    2.12029284154904   13.02543112717498
P        21.42108476904424   -0.16319124295491   13.11056589956634
N        17.69898556437990    0.06317074405446   15.31688753797617
C        19.78238781981955   -1.67686968437878   15.26339686214252
C        20.98629908771051   -2.29388988653179   15.63183790435962
H        21.93472844928475   -1.91112832803556   15.26707715919028
C        20.96560569228917   -3.39115974503796   16.44869724952445
H        21.88904464072621   -3.86983066577766   16.74007097389886
C        19.74909284571629   -3.92778394801725   16.91596728653021
C        19.72793016182449   -5.07486133933229   17.73723552407604
H        20.66898791298303   -5.53121210731609   18.00665350027276
C        18.54715409958350   -5.59971598692849   18.17852959233540
H        18.53744187959330   -6.47762832587758   18.80581677357078
C        17.33437284082581   -4.99843112527734   17.81159987654572
H        16.40530866920356   -5.42510802735787   18.15829958233017
C        17.31917257600827   -3.88412717008719   17.01990052200227
H        16.37008661851122   -3.45096420476470   16.74380950664807
C        18.52107241011406   -3.30881294876042   16.55154663467771
C        18.57665233646549   -2.15145561695278   15.73045541576767
C        17.35009872205011   -1.37819390884470   15.29228125391920
H        16.49460074535603   -1.54966820347894   15.96139490595393
C        16.98302288459835   -1.82655919966982   13.86938840313003
H        15.99437527999932   -1.48466529219618   13.57244364561497
H        16.98954280058009   -2.91400153846860   13.82925002063349
H        17.73540150860217   -1.45002117599354   13.15003992000283
C        18.00820310110600    0.51102671428355   16.67798805698438
H        17.11086287086965    0.49416496741540   17.30939392405757
H        18.38763950678290    1.53845760987580   16.64042447084075
H        18.76221510236120   -0.13420450996451   17.13466993825311
C        16.60736065227957    0.88762719979447   14.79716717963251
H        16.47720961472655    0.73033844799111   13.72108149131842
H        16.84081785776733    1.94839301713505   14.95374647120823
H        15.66654776408850    0.65853771315842   15.31142388337220
C        18.45523085237762    3.90856645247436   13.29601634067794
C        19.09412585866826    4.77986161302179   14.17252190360701
H        19.99192597612675    4.44892857977778   14.68977378828641
C        18.59697481401945    6.05603568220102   14.37086758258877
H        19.10102864867461    6.73518058250880   15.04207868611476
C        17.45139958334429    6.46206691080882   13.70563301023538
H        17.06565656079499    7.45828725448964   13.85753430964242
C        16.79705552450276    5.59136912076037   12.84933912728168
H        15.90156676991281    5.90964413533069   12.33710084809476
C        17.29222258540324    4.31433283887867   12.64976347402632
H        16.78614560773445    3.62255416559448   11.98187971966353
C        19.11959343942864    1.90057308223653   11.05322286626350
H        18.16113456436065    1.66983159294352   10.58105862401216
C        19.77929401316157    3.16056209945784   10.54178359962964
C        19.27816558220987    3.79216385165324    9.28955490932047
H        19.85315753710627    4.67630956942927    9.03223638762174
H        18.23306185817224    4.07904233644677    9.40663400554667
H        19.33804779688619    3.08534115542922    8.46117278541402
C        20.84599215051464    3.47694907046846   11.27999446218592
C        21.85132936474723    4.55694326663189   11.07622264488137
H        22.84003867306058    4.12614446360372   10.91248201950941
H        21.90694977202332    5.18807097586224   11.96394568623633
H        21.59998677891315    5.17944304564775   10.22305664749121
C        21.03621538452191    2.49614172163246   12.41277362741925
H        21.79217100277208    2.80222710504508   13.14327557437404
C        21.35039331668685    1.12392148423500   11.78271995649682
H        22.29535723941073    1.15068050107977   11.22694475007097
C        20.14703835635722    0.76541008004444   10.88139107680944
H        19.70428184015586   -0.19749230879377   11.19609853483089
H        20.44419074199119    0.66423608892900    9.83551759356450
C        21.91088248370660   -1.65813719341744   12.21303915166060
C        21.09564164737290   -2.77952761979900   12.34205083345878
H        20.22362273101720   -2.72949917780431   12.98770219738068
C        21.39850403592660   -3.94078861474981   11.65541285152093
H        20.76667412157449   -4.80929476592420   11.76164266750473
C        22.51147977814257   -3.98567119375792   10.83155563348803
H        22.75278850522044   -4.89239030913383   10.29873294492514
C        23.30982889172783   -2.86289479298384   10.67911424388952
H        24.16645415539612   -2.89420203968603   10.02295954718552
C        23.01043529632728   -1.69699571345332   11.35987962960944
H        23.62520304953588   -0.82038143335913   11.21308822428109
C        22.73019143311363    0.40816432201779   14.23449186707970
C        24.09367490007271    0.22621275845680   14.03621417985632
H        24.45244992833051   -0.32845548341344   13.18275175882381
C        24.99525742201532    0.74037433070687   14.95272549618290
H        26.05367176924443    0.59558350432960   14.79869230141545
C        24.54534178421342    1.43405734836641   16.06395871978664
H        25.25396339428453    1.83194009054305   16.77368400318632
C        23.18532813525080    1.60753675721751   16.27365157672304
H        22.83621514515148    2.13650034382520   17.14770075383143
C        22.27955867131953    1.09293385930819   15.36602133229430
H        21.19795299762080    1.20455187335124   15.54037665494097

