59
CSD_code = DUGXIM | q = 1 | S = 0 | Stoichiometry = C17H35CuN5S(1+) | MND = 5
Cu        0.23502292151912    3.37235705694308    1.58120399930073
S        -2.09170338874350    2.60612723490703    1.19264183701971
N         1.34215630953075    2.15487906841896    0.34841520008196
N         1.10065970773420    2.33018959321771    3.20653782747599
N        -1.10973586080883    4.68918574000124    3.12572339833095
N         0.15358060216759    5.18998486776330    0.56439989897157
N        -1.23951881482269    0.65342135830748    2.99457516297878
C         2.25754796896566    2.88800465087780   -0.53674188023151
C         2.73314859123576    2.00050289846266   -1.69091156487721
C         1.97643777049814    1.18479380798439    1.24758103220147
C         2.33390818832997    1.83335729150023    2.58626954213244
C         1.18181458227932    2.82167921848778    4.58488482295221
C         2.27919217608426    3.87298623272022    4.72095108523714
C         1.42349833327733    1.66624220100706    5.56017638266069
C        -0.23172903314929    3.41131258024640    4.95061360804421
C        -0.53006568221264    4.70001758454424    4.29305624867637
C        -0.13734332070782    5.97454413888788    4.94371760608962
C        -1.42477186258273    5.85435117627483    2.32145382891545
C        -0.23917377918137    6.28615673908005    1.45067619332319
C         1.37888972159987    5.38835364817752   -0.24643216140570
C         2.57186938319295    5.61677569933376    0.68007080529735
C         1.21454385317994    6.59264327566250   -1.18330490370782
C         1.57777733772033    4.13377712506973   -1.13014405427561
C        -1.64472237160960    1.41645309009403    2.22088313168258
H         0.65890068591594    1.67691787565813   -0.23493512203480
H         0.43990429981105    1.53604487558336    3.22839389485583
H        -1.56590307099208    3.81377091037354    2.75653237918790
H        -0.61670552552584    5.02289844538274   -0.08417675339416
H         3.12178057905389    3.18168630258464    0.06289577001137
H         1.90295184113119    1.76169907911384   -2.35255000076574
H         3.15545943874061    1.06891649296717   -1.32324911289721
H         3.49975574477671    2.50493327414167   -2.27170108466166
H         1.26771742489121    0.37541754538545    1.43785595201261
H         2.87984860928330    0.74989486981355    0.80936773082927
H         2.83751932433602    1.08502539395541    3.20736656126722
H         3.01886342262503    2.66817216683029    2.42343269080146
H         2.22217403574241    4.35777444402237    5.69017580545400
H         3.25704950710690    3.40523755023121    4.64984812904480
H         2.19730472668261    4.62563943162398    3.94086755753754
H         2.37686125902383    1.18665821298103    5.35565408771214
H         0.63613632115824    0.92196588159616    5.46880474302454
H         1.44783347420191    2.02289374762780    6.58566146083597
H        -0.96328031807070    2.65239613969910    4.66572543569952
H        -0.25892433144278    3.53710534445678    6.03172087850339
H        -1.02791210176387    6.58368966885735    5.11086854005383
H         0.53800833130938    6.56436112119525    4.32773401373226
H         0.33309740195969    5.79670680540255    5.90416362469967
H        -2.26105313113016    5.57879465903332    1.67502744393285
H        -1.73072547798000    6.68796237402417    2.95662167823679
H         0.61249709421563    6.53702127983158    2.08234332594261
H        -0.53944017480516    7.18370440303220    0.89792919783349
H         2.57602882086266    6.63105893295434    1.07007507397090
H         3.49770946948580    5.47862354427255    0.12998915211138
H         2.54399387034408    4.91582617055887    1.51159187924391
H         0.37369400835004    6.44478911509735   -1.85738253409942
H         2.11018297000278    6.72551565050951   -1.78263626225030
H         1.05724180341944    7.51132212808970   -0.62499870337376
H         0.60656737286215    3.83238510611706   -1.53049105031562
H         2.18727896093887    4.44119477900281   -1.97992342963163

