51
CSD_code = DUHBOZ | q = 0 | S = 0 | Stoichiometry = C12H20Cl2F12N2P2Pt | MND = 4
Pt       -1.95829563527115    6.11176776671376    5.46166113003771
Cl       -1.95831935832711    3.77380140183173    5.46172260988754
Cl       -1.95831762017517    8.41741247839667    5.46179984970626
P         0.18845877226087    5.93302267060054    4.82351361866966
F         0.88954797253588    8.45500401371510    4.16530801522066
F         1.44273275908042    7.91660924905504    6.18740258969475
F         2.58873338075259    7.20276890069924    4.50362311349026
N         0.45397108848399    5.18550926699814    3.39797304214062
C         1.34403495881144    7.47149809862215    4.93758095217436
C         1.15614016921306    4.91389232472690    6.10958904870171
C         1.76745524552925    4.73684345515488    2.92572059112277
H         2.51052338230878    4.93637080508605    3.70090797205953
H         2.04961406440105    5.30842506224882    2.03605695882241
F         0.55151391175285    5.07906179789976    7.29367351317651
C         1.76137339571397    3.24403289383327    2.61840825546673
H         1.42850813670419    2.68341647114934    3.48709308959625
H         2.76791366615815    2.92749416903532    2.35984170629670
H         1.10427475483728    3.01146020731760    1.78542506226326
F         2.43560777961063    5.27233484407970    6.27071332633665
C        -0.62167257896617    5.30988210440798    2.40545934117805
H        -1.56961727046524    5.05559594218061    2.89718189118270
H        -0.43616811920511    4.57579444816470    1.62218106761040
F         1.15683159351596    3.61498403569514    5.82600518098052
C        -0.71299001852058    6.71303171192626    1.82384447836159
H        -0.96213580728994    7.42600098259842    2.61143330225905
H        -1.49372053446625    6.75109162558296    1.06965166168065
H         0.22839039197733    7.01106662372082    1.36730624975191
P        -4.10504453710485    5.93303119456074    6.10003985911499
F        -4.80612167289667    8.45502549237180    6.75824493424303
F        -5.35937949089100    7.91659479707532    4.73618045167210
F        -6.50532929533263    7.20279714878893    6.42001403152499
N        -4.37053408883763    5.18549224572001    7.52558204482929
C        -5.26064336530243    7.47150769918411    5.98600900490560
C        -5.07278559593586    4.91390003099976    4.81400268240981
C        -5.68401528954277    4.73685272148014    7.99787140087211
H        -6.42709871087840    4.93637069957532    7.22269527751441
H        -5.96615950244684    5.30845569175537    8.88752601087272
F        -4.46819524489464    5.07905641948085    3.62990106429207
C        -5.67793614723795    3.24404820009595    8.30521183392460
H        -5.34509460682917    2.68341938719466    7.43652503418831
H        -6.68446906588178    2.92751953975791    8.56382013268175
H        -5.02081727342816    3.01148775330900    9.13818232000807
F        -6.35225978247434    5.27234154716922    4.65291774808074
C        -3.29487022158033    5.30987109629838    8.51807313394198
H        -2.34693311078457    5.05562945699196    8.02631334953450
H        -3.48033472830679    4.57575672430342    9.30133527205841
F        -5.07346740776265    3.61499543024842    5.09760554136888
C        -3.20357065921949    6.71300452559498    9.09972479062318
H        -2.95446805873144    7.42600694033447    8.31215452552340
H        -2.42281615474044    6.75106263218650    9.85389190617989
H        -4.14494446991714    7.01099927408384    9.55630003176813

