39
CSD_code = DUHDUF | q = 0 | S = 0 | Stoichiometry = C17H15NO5W | MND = 6
W         5.89683589832945    4.05571946167903    1.39996843272035
C         7.55054240897533    4.58932898272300    2.39080597023748
C         5.88678803713016    5.80420686409261    0.31391185985872
C         5.90192262806138    2.34162051908839    2.40712885745197
C         7.05255355803966    3.21389612852223    0.00304441883557
C         4.35679803470557    3.45599010615444    0.28655550957381
C         4.76861319157416    4.87322014297737    3.00624100596903
C         5.85154626380929    7.89212425137644   -1.14747850619288
C         4.65796993400341    8.06753920781357   -2.05024852200314
C         4.79491905225577    8.91672845137199   -0.82224733853112
C         7.22917351267350    8.32067552734732   -1.59886516190886
C         2.77957263188518    3.58729427427156    2.86710959306812
C         5.41852268730578    5.81165659761433    3.93915003756846
C         6.10915567433701    6.93330118465360    3.47415663998336
C         6.74918881026564    7.77783880325082    4.35930663787338
C         6.73055959271279    7.51060472987706    5.71983145468736
C         6.04601620722938    6.40413573515366    6.19369066686631
C         5.38037747050564    5.57100422893373    5.31486411164911
O         8.54813086587326    4.82269116413591    2.89840532269548
O         5.91887107666905    1.35246591859600    2.98720143389895
O         7.70665765975171    2.68224069631051   -0.77250231142661
O         3.59123051325372    3.04120625068021   -0.46152316234687
O         3.60318706434559    4.52943742087231    3.52053132177534
N         5.87018805237286    6.75482005693469   -0.36316519363450
H         3.90856064431915    7.29074275305865   -2.05081459647999
H         5.05680433912897    9.95712591419530   -0.93713762257265
H         4.82542510654640    8.51933526265192   -3.01553257013472
H         4.13691803435845    8.71694295519717    0.01002276809510
H         7.15914663507012    9.21772244812927   -2.20773896561544
H         7.86244412611006    8.52760787001722   -0.73743348363687
H         7.69514035566525    7.53121537173539   -2.18637388557918
H         1.90787425543121    3.44783570497368    3.50622126188946
H         2.46155025220956    3.96362491950060    1.89123687831750
H         3.30048919684478    2.63474336101330    2.73623319440881
H         6.11930022080189    7.14792883324650    2.41458154210811
H         7.27290208809355    8.64704680032270    3.98873721644432
H         7.24758787781041    8.16371981151958    6.40704969351150
H         6.02735512972657    6.19236617755299    7.25278175787074
H         4.85178091192011    4.70379511244329    5.68299373268915

