91
CSD_code = DUHDEP | q = 0 | S = 0 | Stoichiometry = C32H56P2Pt | MND = 4
Pt        2.05000696797138    3.30523036867337    2.43012280105156
P         0.14040369496897    4.43760594971539    1.46517963760458
P         0.76286210401093    2.08478781923016    4.07347664939553
C         5.08410939422258    2.25902120805886    5.31062465811774
C         3.24163530573459    4.21202512982563    1.04058905205813
C         4.58571582043122    3.27233603188376    4.29264539504034
C         4.53406085567221    4.48867666218775   -0.97757853609111
C         3.61851490039265    5.52190013851817    1.36098207162868
C         3.70679974731587    3.69543970933691   -0.18075669659182
C         3.86155482900253    2.51774622930329    3.14697202246876
C        -1.48827055864357    3.65707389670247    1.00802683624714
C         0.56061594233104    5.35273441349147   -0.09164186278182
C         3.39532433600181    2.30476229672931   -0.74226065492144
C         4.70249268314758    1.50521671741072   -0.85180218543824
C         3.66480977434767    4.31762849733733    4.93079970036191
C         4.42471495930925    6.30211053375248    0.55393719011931
C         1.65031571551298    1.09743461249758    5.37297012285641
C         5.28304831786397    1.38296508793954    7.55642349848677
C         4.89798206281004    5.77300184127804   -0.63039219250752
C         5.84180817461832    1.17471468122749    4.87052412744735
C         2.75815652826566    2.43691030986022   -2.13542809498410
C         5.80958238514217    4.01805143898119    3.73472775248819
C         4.82069989904127    2.34500376536064    6.67290309617772
C         6.02724992456551    0.31179452270948    7.10025752522657
C         6.30844948065661    0.21536361548985    5.74764959775088
C        -0.55876805786275    2.92803214016063    5.07202364735116
C        -0.55225987050899    5.80249006787301    2.51383768809681
C         2.42663429822973    1.49473004248176    0.11767024860790
C         0.81306049059643    0.36751075727688    6.41502030529098
C        -0.33034885662221    0.77295068976753    3.33844592037997
C         0.54735128230984    6.68011453974413    3.09140220466896
C        -1.36476595471718    2.56812230804300   -0.04891581675993
C        -0.55165397790379    6.07907007568813   -0.83657117385247
C         0.44725020295305   -0.36561719455255    2.69310217204082
C        -0.02073373706557    4.02333246318907    5.98076273574681
H         4.91745794644065    4.09397049616045   -1.90772468943290
H         3.26808970672331    5.96913763277953    2.28333728977563
H         4.58343049482319    2.39224401004274    2.33251150725035
H         3.62563139262345    1.50340999076260    3.49905658126925
H        -2.16397090653961    4.44459533697400    0.66550060481528
H        -1.91539274231527    3.23776543313548    1.92387423973957
H         1.04053243844864    4.62801470887213   -0.75422449667623
H         1.34427563005106    6.06070807607025    0.19114274405975
H         5.40506745116658    1.97710152466653   -1.53285465156801
H         4.49962014918243    0.49889716771816   -1.21478302521515
H         5.17586275343667    1.43115704026925    0.12464128973355
H         3.32462696463839    4.99734690598598    4.15248910283865
H         4.19068725771330    4.90439960751752    5.68333736720975
H         2.79598735248753    3.84838127236228    5.38618073995063
H         4.68497898713539    7.30895607800977    0.85261985444227
H         2.35118716066013    1.76796924750899    5.87366453500856
H         2.26271711418323    0.37343995883725    4.82889298079612
H         5.05886007243334    1.47587540153591    8.61029612348251
H         5.54203776954461    6.35097377641234   -1.27836769587158
H         6.06631307138593    1.07658986788483    3.81875315694841
H         3.40050030757980    2.96780516615327   -2.83137909827824
H         1.81379628568885    2.97463592999510   -2.07102890642407
H         2.55933552281436    1.44936871838178   -2.54887640372743
H         5.49781706713881    4.70328564121402    2.95055648869476
H         6.53283688189743    3.32436579680624    3.31343047712234
H         6.30273322376211    4.58337140434207    4.52459621266916
H         4.25139554093498    3.17022615359299    7.07189032777281
H         6.38747587188436   -0.43836703551042    7.78939687113847
H         6.89393335497961   -0.61362442348866    5.37518784733470
H        -1.09925953815178    2.17943262954069    5.65619015031894
H        -1.26582333896662    3.35559568486701    4.35527364975060
H        -1.11250073573364    5.33559913495546    3.32758421839964
H        -1.25616919016409    6.39875483102917    1.92806231783563
H         2.15999900892166    0.57353127320550   -0.40043323963932
H         1.51078687404526    2.06403485090895    0.29625883398211
H         2.89457475658345    1.22982072829657    1.06502173016086
H         1.47382803344219   -0.22227488119957    7.04869932459015
H         0.09774897441778   -0.31143856736771    5.95672614886785
H         0.27439144190981    1.06148151318646    7.05544240710568
H        -0.94653960245330    1.26511117901772    2.58328541002230
H        -1.00340506843575    0.38699025866046    4.10870463521222
H         0.14178368670475    7.38759103783630    3.81326497919117
H         1.04937364037913    7.24067900937999    2.30613224089610
H         1.28582281295830    6.05536718449512    3.59311346451321
H        -0.91991489227442    2.96015234444236   -0.96081958560413
H        -2.34642967186846    2.16461304252753   -0.29498864756147
H        -0.74122148220643    1.75071223172221    0.30657255403734
H        -1.05896366539777    6.80159986201356   -0.20134702965998
H        -1.29020944588887    5.38756682453668   -1.23480225687541
H        -0.12006614440706    6.62283604430617   -1.67539879896936
H         0.95211744769051   -0.97012177134449    3.44298771888794
H         1.19499909282247    0.02759134846794    2.00916073664191
H        -0.22504837616424   -1.01489584622124    2.13372480845445
H         0.64396854494795    3.60763981893158    6.73535375901401
H        -0.83749973008934    4.53203858374361    6.49172671426692
H         0.53342338230149    4.75921939789617    5.40335693845757

