42
CSD_code = DUHDOZ | q = 0 | S = 0 | Stoichiometry = C20H15NO5W | MND = 6
W        11.75121961045590   13.62694825263310    1.69369626232864
C        11.51750081168397   15.47222312652678    0.97178407599781
C        11.83722962694593   11.82103676719728    2.55292683652153
C        10.13449274113233   13.00309318698888    0.71528713909432
C        10.49142872105808   14.15840234729955    3.15108847514967
C        13.16653103570487   13.19231677558053    0.16548259846715
C        13.36232810019258   14.29359943095845    2.77946947451901
C        11.89845169074861   13.70395471992706   -1.76742641395591
C        14.56177747717875   12.89224447643863    0.53838292691307
C        14.87863471946235   11.84572831190911    1.40510914462154
C        16.19029457199276   11.61225607031316    1.77043449924087
C        17.20486781845239   12.43270540519666    1.30016669560905
C        16.90172562999382   13.47615803883524    0.44153941518719
C        15.59543908694663   13.69279441774252    0.04646743006923
C        15.31549304817428   15.15725251899122    4.12664071139806
C        15.25685324218631   16.42322038170945    4.70908217073093
C        16.33163199282464   16.88283593166716    5.44050945916078
C        17.47504400898529   16.10541748214524    5.60705355062557
C        17.51717695457723   14.84721688531678    5.01770339382237
C        16.45163685260594   14.36651084018736    4.28266273147110
C        18.62766592033908   16.62811431294586    6.40640975555681
N        14.26348349147985   14.69531964956985    3.40680701611037
O        11.31041767252704   16.55238863651780    0.64722845333527
O        11.75471387463433   10.82717399415240    3.11417107296122
O         9.12281974704805   12.68413520298377    0.27768662621330
O         9.73832414449105   14.48448222975069    3.94959266941287
O        13.11512311872601   13.35979516856320   -1.13846144918517
H        12.10885846618515   13.75790093378611   -2.83513915911947
H        11.53428843726582   14.67129673660314   -1.41057121173435
H        11.13735146382514   12.94261653830786   -1.57805584939520
H        14.09353885098563   11.19657423059312    1.76418575698230
H        16.42411085362908   10.78753793732661    2.42847443471271
H        18.22762985888751   12.25693828151307    1.59974176338963
H        17.68842623307958   14.11656560385247    0.07033747996837
H        15.35856357902464   14.50563974169312   -0.62475099286477
H        19.42164783738350   15.88951505142781    6.47712097235824
H        18.30334979199818   16.88972919982609    7.41265076936085
H        19.03052195390016   17.52879772692833    5.94441776922850
H        14.37068195098225   17.02660237892199    4.58206685969316
H        16.28655266780458   17.86228224672147    5.89397289973586
H        18.39686165498123   14.23166075385234    5.13701889400692
H        16.48421068950812   13.39001807659479    3.82433489229664

