78
CSD_code = DUHGAO | q = 0 | S = 0 | Stoichiometry = C26H48NSi2Y | MND = 11
Y         0.40884818724857    3.85218142513951    5.04993532556426
Si       -2.55066625547300    2.23403948631765    4.68059206365213
Si       -2.67316141717461    5.23674329344981    4.83565519707138
N        -1.77386856809295    3.76627092669995    4.83716218098030
C         0.70360200180580    4.28370011885431    2.43659517428984
C         1.65396604244138    5.10181928940407    3.10459118394560
C         2.58399632975820    4.24515166186294    3.77102366923796
C         2.18770044043073    2.89110552630034    3.52572268872697
C         1.03071717967562    2.92466522201739    2.68962333395585
C        -0.38388598454280    4.72362433764811    1.49968233178155
C         1.84475097671886    6.58633324364933    2.93769584097275
C         3.93893189221046    4.67928756203786    4.25704314500684
C         3.02445180663867    1.67279186132486    3.81938234002540
C         0.41794378791043    1.75450601949731    1.97287789496582
C         0.99141189935077    4.68821170129676    7.31405118226025
C         2.41002518722342    4.73408387473847    7.34671561388825
C         2.90314704668543    3.41853294671800    7.39709978285865
C         1.81970917811625    2.52533905135630    7.41718759768734
C         0.60457205160537    3.27275875695776    7.37447502436061
C         0.11071248441077    5.81390651797241    7.81384419483385
C         3.20320915149044    6.00351978563195    7.43094904959902
C         4.33484958790760    2.99680531598128    7.52381041135072
C         1.93699189744536    1.03739319618166    7.56450996236104
C        -0.69982240069236    2.81327989544763    7.99501124581053
C        -1.17137496404075    0.91200226599914    4.94446486046023
C        -3.92449851527575    1.87230559597381    5.96256303140891
C        -3.37779753477080    1.92418739491729    2.97853800683427
C        -3.72275985320943    5.52294541847253    6.41630326842188
C        -3.88753670776594    5.47723516695854    3.38079319916816
C        -1.36294970531373    6.64663600201418    4.73474001776124
H        -1.33630456090869    4.26666742418447    1.76935706114856
H        -0.14309255517271    4.42488481101349    0.47711164482978
H        -0.50599389899577    5.80402038564042    1.51411677153408
H         2.10607060000328    7.06965504112383    3.88108239511700
H         0.94586283073910    7.06030123396043    2.54955339521589
H         2.65587029670608    6.78112694334654    2.23196119912077
H         3.91720448674665    5.70277005117065    4.62350040600418
H         4.65315403082102    4.63659463389015    3.43014493035928
H         4.30709759179344    4.03423189777353    5.04898112281754
H         2.40789463419974    0.79403954352789    4.01474360021508
H         3.66864804788333    1.44508570583201    2.96604428282125
H         3.66476584323743    1.84195073830042    4.68269029962683
H         0.75897361813121    0.81148783819024    2.39461339920967
H        -0.66939233441567    1.78388788598079    2.01532115874695
H         0.71149628026866    1.77409770858685    0.92045220901765
H         0.15420300783472    5.84357123501106    8.90677124138851
H         0.45451210714935    6.78167837186526    7.44885889364868
H        -0.93028531163002    5.68024712623864    7.52238235033080
H         4.24332097269613    5.84228816019944    7.15950400655779
H         3.18140874576642    6.39420451962192    8.45059814256235
H         2.79082890134017    6.76989024371755    6.77369554350854
H         5.01321772903032    3.82891413449937    7.35251551137844
H         4.58144410425299    2.19724769407983    6.82371675295895
H         4.52280302645290    2.61474894431898    8.52872298706335
H         2.73409677480362    0.64109044589572    6.93553509407433
H         2.17706634393492    0.77852073889987    8.59811616974649
H         1.00807820523950    0.53627144033344    7.29824777548865
H        -0.82913649069025    1.73851252740746    7.88617951658785
H        -0.68169422573910    3.03811716188087    9.06543240110140
H        -1.56490347036322    3.30922881339633    7.55479115129708
H        -1.14028964092902    0.20300467787947    4.12410287345478
H        -1.34986963412028    0.34238125150354    5.85105620393161
H        -0.17422025621967    1.37497734408865    5.02679793909584
H        -4.28094169844893    0.85087282119026    5.87370503044791
H        -3.59083520476683    2.01750682572011    6.98417372206654
H        -4.77245023150367    2.52816192996284    5.79938130949056
H        -2.86916849644110    2.44021873307136    2.17132824411482
H        -4.40152397385217    2.28181382892310    2.99031504022634
H        -3.40635113158551    0.86749096069969    2.73113709230864
H        -4.60767066528499    4.89700671594132    6.39626825289640
H        -4.05525400754540    6.55398366079781    6.48623392757495
H        -3.18604349347128    5.28882739757216    7.33022709908446
H        -4.34471569833289    6.46114280387036    3.41104172395138
H        -4.68398773702117    4.74356605951098    3.43061837940882
H        -3.40250414115764    5.36877039328850    2.41704192951066
H        -1.56501676594444    7.43051073503405    5.45760606385721
H        -1.36688222120527    7.10660102721751    3.75204148884844
H        -0.34550555600503    6.26836657302116    4.92554344701362

