87
CSD_code = DUHHOF | q = 0 | S = 0 | Stoichiometry = C46H28N4O8Zn | MND = 6
Zn       14.25056154327099   13.37926486325368    3.23255452706961
N        13.15399469865577   13.01437309255957    5.00361649912408
N        15.35949382436316   14.49567566285236    4.62488440982031
N        15.10142256869957   13.74750598788033    1.35596481624104
N        12.64243158875647   14.31980877301919    2.27743832301658
O        13.91233587920946   11.45239852629011    2.78389033931262
O        15.83985250479469   11.97594964182056    3.66609598169980
O        12.15188613729899    9.99995419431700    9.93472408365857
O        10.61566858487942    8.56257358684444   10.70046800305532
H         9.29361607963408    8.28092570087387   10.08916354401355
O         8.40737589071913    8.29403196092478    9.54967627386743
O         7.61599327029348    8.81981199872820    7.55904089382022
O        10.45940482447388   11.92564665639584    2.28552092326821
O        10.93393188465818   11.18887787511979    0.26302379698195
H        11.18844470552537   10.37194933604114   -0.18691407868477
C        14.93862588630668   11.14019222838280    3.44693356058438
C        14.96925326166070    9.81779544864891    4.12567954859355
C        16.08900107942624    9.02571777755579    4.34383473195258
H        17.03025033876751    9.28023374489043    3.88099267438757
C        15.97507313829893    7.91368907657832    5.16217903900322
H        16.83840230289654    7.28560467544425    5.32829158629413
C        14.78050135163410    7.60935450303841    5.79893432558073
H        14.72056323582392    6.75946839954006    6.46298432952744
C        13.65808970959966    8.40021283640309    5.58737236669692
C        13.77131270882822    9.48822350838818    4.73383500370111
H        12.92336783858181   10.13116967194702    4.56583218231559
C        11.31974016480432    9.09733637529422    9.82357312086172
C        11.15367096092735    8.59216890514198    8.36757115299807
C        12.34446675568555    8.43756993308250    7.66803614353348
H        13.27522923952110    8.54229997614716    8.20763513259097
C        12.37245853760486    8.26269210272562    6.29441403279024
C        11.15991688164078    8.23381584878998    5.58972052935105
C         9.97204345185971    8.30867555269530    6.29317155381071
H         9.02569966231698    8.27260251547001    5.77226553766732
C         9.94304852333221    8.47429769264614    7.67905518737652
C         8.55754335068844    8.55876602004965    8.27860533965821
C        10.79572182019957   10.99907994682598    1.58979191364798
C        11.08630770909191    9.64841069996394    2.12614810333453
C        10.78584702298004    9.42188822267082    3.46641033083506
H        10.26285882796220   10.18858272883439    4.01786790515054
C        11.21579869983654    8.27150244106918    4.11558281890919
C        11.85628127212480    7.28388396159636    3.37488002334144
H        12.19032106126792    6.38194766150813    3.86555458272547
C        12.08722967076599    7.46510339285524    2.02216092053292
H        12.58325021147040    6.69129922561857    1.45505640692318
C        11.74065071705274    8.65132924387514    1.40152849512830
H        12.02023383516316    8.78845233096082    0.36417759486071
C        12.03495594548694   12.34027590807923    5.18686599497159
H        11.37200941620588   12.28617912097600    4.33266452769634
C        11.71279029557761   11.71897872379235    6.39871061985456
H        10.78166708158006   11.18268164585346    6.49469793632527
C        12.60019906950417   11.77618222081767    7.44890342601522
H        12.41006037152032   11.26515996663329    8.38999330278399
C        13.78919697105624   12.50895257259319    7.27916732146904
C        14.75777978079209   12.65441753629983    8.31393451549198
H        14.56387748090594   12.15174908469008    9.24949229128733
C        15.87242364969918   13.40176679625470    8.12308419476240
H        16.60425967017655   13.51609691906008    8.90884296390132
C        16.11486099065329   14.06065507407546    6.88220820111831
C        17.24735113484786   14.85429357026761    6.63843664914915
H        17.98494429181677   14.98499653424322    7.41680850553937
C        17.39729563011025   15.44991268912932    5.40863434592961
H        18.25385609941500   16.06785666606542    5.18985091686530
C        16.42724192158859   15.23679049042851    4.42669463988587
H        16.52350341385539   15.68664977211106    3.44835287420259
C        15.18851329795507   13.91676376864158    5.82564948716728
C        14.01297785900160   13.12552523093489    6.03078760634110
C        16.31393006510572   13.45168820023326    0.93159645130876
H        17.07046109203762   13.34334243525510    1.69566325196599
C        16.61600285232607   13.26754980450203   -0.41827133882894
H        17.62531740397061   13.02722367121481   -0.71277644425844
C        15.61425771067799   13.39019767042784   -1.35408766235567
H        15.81155620634315   13.24935491657039   -2.40669717504717
C        14.31116244848789   13.70072853319238   -0.92627355457479
C        13.20930865629536   13.84633540125122   -1.81536448155931
H        13.38494395468512   13.70332630997111   -2.87133791207583
C        11.97266959054596   14.15787690543059   -1.35139625215425
H        11.14006899656024   14.26790038100635   -2.02974897869728
C        11.73468579719657   14.34390854848671    0.03836484862797
C        10.47526721670111   14.67549920424158    0.56703171124135
H         9.63095681502999   14.78613626820952   -0.09697188007159
C        10.34357032224924   14.84165451431629    1.92261854119126
H         9.39357927293094   15.09145922243195    2.36591243886393
C        11.45772823618480   14.64418480533999    2.74390714994794
H        11.37693469517997   14.75385137917600    3.81504080624747
C        12.80000182464141   14.18406960395419    0.95110585043781
C        14.10775925886789   13.86801342808747    0.46097979846483

