43
CSD_code = DUHJIZ | q = 0 | S = 0 | Stoichiometry = C16H16Cl2N4NiO3S | MND = 6
Ni       11.87920675682632    8.01209286111058   10.59214929556349
Cl       12.47939810338495    9.47195760654117    9.19995603286650
Cl       11.98835872855790    9.31686521852229   12.22991003131030
S        12.13216726281468    7.18749057735737    7.72856054069989
O        11.61862735820189    6.73955927147296    9.05930201233097
C        10.71252530756904    7.99486779083750    6.89850707486224
H        10.70396130537896    9.03741533483870    7.19602595392649
H         9.80063506053119    7.50279507069556    7.21960209445247
H        10.84311690236299    7.91843771407490    5.82555543145667
C        11.96859887184811    5.60621986541906    6.78429776441288
H        12.66400951964760    4.89723284743406    7.21999578515864
H        12.22930811197024    5.78736541221180    5.74830451668728
H        10.95785450320795    5.22589085272131    6.87016260244113
O        15.29794723893265    7.76909681982221   10.47946038157275
O         8.16869348702518   11.09913705387193    8.04796326235285
H         7.33627993140170   11.43545723950147    7.68560550269091
N        11.72380856186332    6.52684069289998   11.86938130754555
N         9.52892074405309    7.81237770718401   10.94725771885481
N        14.09854448976806    7.27897574998585   10.90580132656005
N         7.80028558248048   10.10503257435008    8.93283272503934
C        12.82148522340114    5.90826043984048   12.29682169642776
C        12.75342579670087    4.84033703559901   13.21087484464855
H        13.66658583831260    4.36394329811151   13.53279378413341
C        11.53490956809971    4.42954154919493   13.68280326505191
H        11.45601735587046    3.61972907656194   14.39352580860713
C        10.36940393602956    5.08035325501355   13.24020702559469
C        10.52436870832091    6.13440846568653   12.31031474252631
C         9.06876257156663    4.72790291132734   13.69337387573197
H         8.98023176270157    3.91880762346185   14.40371418067204
C        14.10376450713384    6.38926292837095   11.81651595643801
H        15.01865019219062    5.99665764022644   12.25565783305697
C         8.47872107938675    8.47971140244859   10.50455998467501
C         7.16556565858674    8.17402527861143   10.92170568228973
H         6.34943537016573    8.75115745851972   10.51901867421678
C         6.97066234460029    7.16353613242789   11.82379155181206
H         5.97937858302496    6.90410330699658   12.16810750608559
C         8.08111088948435    6.45181899058170   12.31630264013858
C         9.35590949167966    6.82665266964693   11.83377042134078
C         7.96917933465173    5.38921133803478   13.25331690092346
H         6.98388989698092    5.11915315961755   13.60485225758199
C         8.75326549432003    9.55120009346731    9.56424730976365
H         9.80000183941993    9.83036195622097    9.44089441782879
H        15.06012672955323    8.50015572918291    9.87909827967741

