33
CSD_code = DUHJOG | q = 0 | S = 0 | Stoichiometry = C14H13ClN2O2Zn | MND = 4
Zn        3.02971342043119    8.67793771877961    0.69793142075057
Cl        4.86966315036403    8.10213378948944    1.59841284048354
O         1.98004465724722    7.40208147529297   -0.15395825261410
O         0.80418330637379    5.26411190653817   -0.98844254634365
N         2.55053952847445   10.34015125065523    2.01312790033863
N         2.60811006155314   10.11090048986237   -0.60458371219327
C         1.23909234515737    8.72907570687505   -2.02210436607137
C         1.34671268229025    7.52775403209107   -1.26375247803303
C         0.66661308830877    6.36366091345712   -1.77642915183375
C        -0.02626596835546    6.41127700045031   -2.95905205315588
H        -0.51924922859964    5.53328355221622   -3.34642398341066
C        -0.11377518760313    7.60685264983285   -3.68900208504086
H        -0.66943066860722    7.61806488161627   -4.61389899929910
C         0.49287444525424    8.73456286522773   -3.22697371853623
H         0.42606744625628    9.65869000487236   -3.78310218344247
C         1.79167902301996    9.95809511888143   -1.58964736642781
H         1.47476358961809   10.84875302437366   -2.14685825621322
C         0.22616446699898    4.05841499265593   -1.41584093028341
H        -0.86364273257433    4.13939202190512   -1.49849653816934
H         0.47496152477071    3.32512344985781   -0.65038598316047
H         0.63801389147434    3.73152425921628   -2.37694687987262
C         2.76311008968073   11.48354490647395    1.37057963027563
C         2.83594473375606   12.69782206905713    2.04460589370064
H         3.01125318505049   13.60944591957337    1.49422219891978
C         2.68896984262164   12.71123735793285    3.41972095474745
H         2.74591211788235   13.64005606839960    3.96710770546388
C         2.47097606618918   11.51070936749293    4.08055958138019
H         2.35460337244315   11.47638503998947    5.15150070297704
C         2.41150691098321   10.34910032167313    3.33291265376596
H         2.25179889836637    9.38602329497910    3.79604179585846
C         2.94732409430148   11.41818500922405   -0.12672685595007
H         2.35016903039847   12.20519286994975   -0.61129022403350
H         4.00779881647214   11.61425667107322   -0.33610671456542

