23
CSD_code = DUHJEW | q = 0 | S = 0 | Stoichiometry = C10H8Br2N2Pd | MND = 4
Pd        2.99188026413915    2.60820841806531    2.53526018336197
Br        2.61881326207652    4.75460391427527    1.64769060511854
Br        5.11286159081823    3.33067780330844    3.25052503869400
N         3.17738091333622    0.68437387163464    3.25337670249221
N         1.16345603735738    1.83576772956397    1.97874759553217
C         4.23208737734913    0.16617491058993    3.88131821915768
H         5.07537171168161    0.82687997543583    4.04278087944849
C         4.27529336247962   -1.14514425785008    4.31632171914207
H         5.15465845565051   -1.51433352841243    4.81750809107375
C         3.17465320140319   -1.96068976164214    4.09230104913911
H         3.17084765004655   -2.98979211680830    4.41623939009504
C         2.07801747276277   -1.42765989642822    3.44350055298047
H         1.21390529939214   -2.04362089220983    3.25886858336796
C         2.09642928114303   -0.09486919416530    3.02833961841139
C         0.97912803682376    0.54460874745853    2.33286274483909
C        -0.21680678234354   -0.11289891417085    2.03879505561356
H        -0.35792642738104   -1.14100980074572    2.32750338243810
C        -1.22526883510742    0.55847539045969    1.37564225886361
H        -2.15330409533252    0.05955588517659    1.14374639662063
C        -1.01696559566016    1.88296845789768    1.01634297939540
H        -1.77242039290058    2.44898611320194    0.49696384493493
C         0.18821605192669    2.47877899414157    1.33788624638538
H         0.37859216033952    3.51135815122473    1.07077886289427

