44
CSD_code = DUHJOH | q = 0 | S = 0 | Stoichiometry = C20H19Cl2PPdS | MND = 4
Pd        3.94390106567135    7.95667116491680   15.54144050859794
S         3.40107655885201    8.48327818659604   17.72510716776258
P         6.13777443462979    7.80578290349610   15.96584470800192
Cl        4.29407866571891    7.46996576821536   13.37933218325544
Cl        1.71935598233837    8.20323550656050   15.21126988969183
C         7.23956944139900    6.95162634521733   14.80972684409502
C         6.81126145352568    5.69807625269780   14.37489801941693
H         5.86687083698424    5.30860725864519   14.74023819421530
C         7.57169351036598    4.98404337349534   13.47055952864396
H         7.23777105400856    4.01609598141397   13.12851993583898
C         8.75624193177079    5.52186537433705   12.98955123337343
H         9.34695347768152    4.96890242278435   12.27440806978116
C         9.17640170761733    6.77194738981198   13.41130760606677
H        10.09352648933133    7.19257863034616   13.02573734861535
C         8.42047581779234    7.49363272998245   14.31971922657512
H         8.74280705029325    8.47518060269892   14.63699077878473
C         6.74875445848897    9.51654823972832   16.05141864725245
C         7.90679503973313    9.88044759080030   16.73241993742405
H         8.48315486217630    9.12648071054171   17.25221107092743
C         8.30497385332528   11.20540213956005   16.74507820820035
H         9.20348903009465   11.49137203810801   17.27187601671133
C         7.55343726417603   12.16445032903934   16.08362540962394
H         7.87039356531229   13.19651134267123   16.09647388480414
C         6.39566834255406   11.80579343518798   15.41028400054753
H         5.81142807564055   12.55682295259885   14.90058411401853
C         5.98823410279274   10.48379194438347   15.39500079588115
H         5.07263325849090   10.18432308504772   14.86697337682478
C         6.54942119285108    7.09013688428223   17.59369729220196
C         7.43169549392162    6.01623724733992   17.68696303384227
H         7.95271090230101    5.68292206601332   16.80116899066041
C         7.65077770532210    5.37748602522960   18.89337898049365
H         8.34525813632326    4.55292397171829   18.94648109440687
C         6.97167415273533    5.79330339997040   20.02569929211419
H         7.12623258162845    5.29289402187527   20.96930596687728
C         6.09053028723610    6.85682149493189   19.94537198342605
H         5.56640062326974    7.18357221477251   20.83234421158616
C         5.87216216850955    7.52306353673683   18.74509318785096
C         4.94084349014170    8.68828649171380   18.73070255508533
H         5.41479287634667    9.57330008655809   18.30033784219323
H         4.60538188728961    8.92070746789922   19.74213337374058
C         2.92256258355421    6.78902439786135   18.16776984046589
H         3.72498796312188    6.09129506139729   17.91929285318136
H         2.03308489220204    6.57453104273089   17.57453451824268
H         2.68876173247464    6.74586089009111   19.22862827870634

