38
CSD_code = DUHJUM | q = 0 | S = 0 | Stoichiometry = C19H13N3O2Zn | MND = 4
Zn        4.39427361800586    3.54592651346472   14.07085550040083
O         2.83292180137090    3.09931033355200   13.17925986601354
O         4.56012076550016    1.99543784005213   15.05878709220945
N         7.47573595456606    7.69361475049825   14.66259266725797
N         6.07859980031526    4.29899887520906   14.90774780063187
N         4.52216740577844    5.27054313417194   12.99878131117588
C         7.27793463778124    6.45622529822710   15.06614690236815
H         7.89572199624154    6.14597348479331   15.89795827743759
C         6.33286162825351    5.59410282301373   14.50172271740572
C         5.50717928410928    6.11067614419067   13.47298727827832
C         5.71310263373964    7.43478641410529   13.07854232468835
H         5.09536443090014    7.89963288533667   12.32671202880030
C         6.71670876523160    8.16538458544276   13.68555663168287
H         6.91625533480434    9.18685305115638   13.39208599294735
C         2.72432370711844    4.78379236138174   11.47514499790543
C         2.27154390592858    3.59588877216990   12.13900607418886
C         1.13535571924307    2.93974145407352   11.59201057612006
H         0.79687633109286    2.04908524930519   12.09839167567388
C         0.50172858401585    3.40938919098994   10.47744183684273
H        -0.36008728581323    2.88768395849761   10.08693793509041
C         0.95781102642598    4.56603307255328    9.82448802356876
H         0.44793114306259    4.92227477019228    8.94276234443136
C         2.04395941793974    5.22894069473166   10.31611747000524
H         2.40378227908409    6.12313091736308    9.82553574038641
C         3.81815691148030    5.53886899344437   11.93492739948482
H         4.07588843344011    6.41358259933965   11.33223061067196
C         6.66933892376815    2.32617537792233   16.15463654134906
C         5.49383218929438    1.57306338554875   15.83386129834728
C         5.37610718367747    0.27777530578758   16.40414050075526
H         4.48704278152082   -0.28310511743543   16.16058713866838
C         6.33949231545548   -0.23654353222231   17.22503451213440
H         6.21746989992778   -1.22383018268544   17.64670507048411
C         7.49335281435112    0.50212335118551   17.52811605203099
H         8.24746130942112    0.08144160658016   18.17515756135610
C         7.64841455586081    1.75038694658856   16.99808476256791
H         8.53160509213204    2.33187933281686   17.22477927006464
C         6.90255764844606    3.62311802559350   15.65627119788219
H         7.86270705652777    4.06873733306404   15.92639501869109

