16
CSD_code = DUHKOH | q = 0 | S = 0 | Stoichiometry = C7H5ClHgO2 | MND = 2
Hg       -0.70987191631578   13.04582094779319    7.06736594161715
Cl        0.60795056126156   13.04356857849432    5.12704109590817
O        -3.31150521759133   15.25239544315579   11.95324540707599
O        -1.99758104041049   10.53167692048271    7.92128740736196
H        -2.33522236324161    9.63477553302649    8.04243669874336
C        -3.20945905145137   13.13173442612367   10.88694473214261
C        -2.39281890449833   13.56470276852312    9.83262350449902
H        -2.09479058071237   14.60473507473552    9.82819121107373
C        -1.99222947706071   12.68736295880860    8.84580895240006
C        -2.41807851186240   11.35363444408210    8.91622967912203
C        -3.22846938038287   10.91356063984201    9.95888397302265
H        -3.54540831100179    9.88000717057847    9.99519540656001
C        -3.62050724649446   11.80261132824987   10.93929051933669
H        -4.24885121639688   11.46586119891296   11.75079344668734
C        -3.61848177507941   14.08874650807340   11.92077212934035
H        -4.26027556876155   13.64370605911850   12.70718989510900

