89
CSD_code = DUHKUN | q = 0 | S = 0 | Stoichiometry = C42H42As2Br2Pd | MND = 4
Pd        3.62313382012556    9.10712692014944    5.16294203954515
Br        5.40532572623964    9.25278126482854    6.79244512186943
As        4.68354459002109   10.68983024892674    3.78784929281302
C         4.49617618937620   10.84900941891992    1.85810002521943
C         3.29909614727938   11.29592113454564    1.30632655279419
H         2.47915699282516   11.57731400557030    1.95818531337794
C         3.14927711709430   11.37236445111379   -0.06398633248830
H         2.21428520077484   11.71986626125318   -0.47963517957543
C         4.18131167936841   10.99800752688020   -0.91786850123958
C         5.37156097069373   10.54596733445117   -0.36300057936803
H         6.18371760700398   10.24700224056287   -1.01120407244046
C         5.52868036020247   10.46656360523151    1.00905553626489
H         6.46360355707101   10.10826902532474    1.43033135730579
C         4.00981441618199   11.09809287763805   -2.40248004206622
H         3.01220840613092   10.77820382648873   -2.69537804712902
H         4.74418386477929   10.48782846785174   -2.92210920529024
H         4.13715319859641   12.13249687951494   -2.72331115427115
C         6.59038765336132   11.00736059558406    4.00508938437800
C         7.42207727278998    9.89274476066540    3.96812120724099
H         6.97978405205648    8.90442254454625    3.83874020565250
C         8.78730331567626   10.02801185783265    4.12504243312707
H         9.42134998878947    9.15299290363306    4.10072729917626
C         9.35150517022214   11.28070990067934    4.33347343037244
C         8.51531190422746   12.38978286050751    4.38076164579566
H         8.94100604219625   13.36812710266165    4.55578954937153
C         7.14792760603534   12.25904946708463    4.22043400939534
H         6.50679766694028   13.13173993794340    4.27793898671222
C        10.83197093312313   11.43962450220076    4.49693525172519
H        11.29475767569032   10.49806530621754    4.78115420452852
H        11.05732645190006   12.18673971994383    5.25472504578366
H        11.27755360857023   11.76969180205879    3.55778086581963
C         3.82416656238735   12.31419568421964    4.40323747319537
C         3.05753069923295   12.26146315553670    5.56314800805909
H         2.95509452072540   11.31514893324104    6.12088042821800
C         2.41124569761957   13.39052349851081    6.03331436865494
H         1.81897494352626   13.33340155762844    6.93598974592994
C         2.51396120603510   14.59674133228251    5.35373842174956
C         3.27424179213298   14.64569947765961    4.18866583248295
H         3.35400444957782   15.57793806765919    3.64661739164135
C         3.91976217505804   13.52072637986054    3.71515337045891
H         4.49435956783642   13.56296925219834    2.79423615381613
C         1.83252217514285   15.82992766446766    5.86127961835718
H         1.34670832686054   16.36357416043882    5.04660329841211
H         2.56495616713457   16.50148716301993    6.31004321490421
H         1.08892479742465   15.58331148841600    6.61482642653212
Br        1.84191636526193    8.96108838683898    3.53234131967057
As        2.56319319880602    7.52396874355034    6.53678452446659
C         2.75055816421733    7.36475965028118    8.46649573139206
C         3.94763338600801    6.91789649907931    9.01835215993612
H         4.76755660816895    6.63638269803308    8.36652456360865
C         4.09749977110194    6.84170512101596   10.38867576630865
H         5.03246770080567    6.49415607732475   10.80434416477292
C         3.06553046056203    7.21627106000447   11.24255098243234
C         1.87531166943809    7.66834078269873   10.68762005285346
H         1.06320010557138    7.96745465464811   11.33581546485366
C         1.71815779409125    7.74749176137620    9.31554947221123
H         0.78325828120159    8.10588027786494    8.89427503966920
C         3.23704150825382    7.11632421960632   12.72717732964890
H         4.23466234703589    7.43620305908579   13.02003434857559
H         2.50270905003345    7.72665527753560   13.24678207236629
H         3.10968210399608    6.08195802088093   13.04813552478369
C         0.65637249850890    7.20636258177849    6.31989047460919
C        -0.17528102091145    8.32101710858895    6.35663124374819
H         0.26705550691970    9.30933233327964    6.48581707750521
C        -1.54050894976546    8.18574487618887    6.19973848309897
H        -2.17451568015850    9.06077872373441    6.22404815771512
C        -2.10475763833278    6.93304166266266    5.99151954632886
C        -1.26858973692660    5.82394020699173    5.94430845151641
H        -1.69433386033598    4.84558920220245    5.76945998995682
C         0.09880092530307    5.95466757702641    6.10463865691526
H         0.73990216114260    5.08195857799414    6.04709764192930
C        -3.58524490436934    6.77413928913838    5.82824598422320
H        -4.04805023126098    7.71569282811775    5.54403986043984
H        -3.81069242316541    6.02699899715724    5.07051020464519
H        -4.03074663244662    6.44411688757032    6.76746061455296
C         3.42267755760804    5.89963928796437    5.92150545888554
C         4.18922535616219    5.95229646292306    4.76152159130605
H         4.29166380969115    6.89852145363198    4.20367309901155
C         4.83548977486724    4.82322512788509    4.29137465396949
H         5.42776023255052    4.88035699676878    3.38870397847532
C         4.73283652327557    3.61703147011909    4.97098741705708
C         3.97263546578268    3.56811936085045    6.13611840178222
H         3.89290400103165    2.63589837359833    6.67819881586582
C         3.32715931043620    4.69312133838283    6.60964039305125
H         2.75258508518010    4.65086211866332    7.53056814725582
C         5.41426264949215    2.38384822245050    4.46342746105063
H         5.90012527666938    1.85019811878997    5.27807473748419
H         4.68182329447894    1.71227794322730    4.01469051143326
H         6.15782086798489    2.63047001652605    3.70984103181081

