79
CSD_code = DUHNAX | q = 0 | S = 0 | Stoichiometry = C20H40Cl2F10N4P2Pt | MND = 4
Pt        2.13522374457109   11.38711018700678    3.98081987827317
Cl        4.29164778581026   10.59335742741101    4.34617832695084
P         1.40175569321202    9.34847226828676    3.26769242254775
F         1.49551274588852    6.74663165281359    4.14727983244444
F         3.40556533564479    7.68780498493140    3.84174195666242
F         1.39584556091934    7.42275667691419    6.53363433774122
F         3.49811842518213    7.79592907728280    6.32713472867798
F         2.09368001846520    9.41647914022202    6.19857288988811
N        -0.19776494901839    8.83708036717654    3.31735122793559
N         1.96460874286107    8.94671740330506    1.77980680961527
C         2.16970330294712    7.91060664028664    4.33960187160172
C         2.30396580067894    8.13430297419202    5.85886829720177
C        -0.84433552430154    8.94003370906057    4.63118937985379
H        -1.60015820937738    9.73043805917768    4.59707581978087
H        -0.10138596885301    9.25129515569312    5.37216119603081
C        -1.47759756343881    7.62834478875377    5.08090393810456
H        -2.31000102677749    7.35357855821862    4.44185321485358
H        -1.84356930437441    7.74026793437236    6.09809285860803
H        -0.75110065306245    6.82240761662035    5.06374060547524
C        -1.03628445770513    9.27998149181764    2.20087722308263
H        -0.37918927277927    9.51178486968304    1.36131124300443
H        -1.56409780004482   10.20104730467260    2.46769342014043
C        -2.03721436217858    8.21348696976082    1.77278583699388
H        -1.54811957109640    7.24821195861291    1.67380955733132
H        -2.46644349949293    8.48893842584731    0.81267257957581
H        -2.84733185267557    8.12364570445324    2.48990693989816
C         1.59532188624890    7.70092138855165    1.11335707225078
H         1.03239399972230    7.91903924348840    0.19917995195916
H         0.93966892066917    7.15283622736325    1.79241064249411
C         2.80130642940679    6.83317481188310    0.76573268691363
H         3.39200837815268    7.27691261174229   -0.03120669640024
H         2.45444192305922    5.85948910225702    0.42975655921942
H         3.43815140644754    6.69556075251146    1.63389840614486
C         2.73291189106405    9.92466307311169    1.01795707922052
H         3.57666924607826    9.41836803595432    0.54472965794283
H         3.13526008205918   10.65885370228829    1.72838809520039
C         1.89772815783273   10.65982561634446   -0.02398004015643
H         1.47864704674171    9.97307449841563   -0.75587172172441
H         2.52291595195701   11.37790765974988   -0.54659563701724
H         1.08951302739332   11.20114202857625    0.46345401450233
Cl       -0.02108177319635   12.18016562219784    3.61503753947108
P         2.86875419058892   13.42560741100498    4.69351443245763
F         2.77514442259195   16.02731648489943    3.81370555831955
F         0.86503145443715   15.08635530154340    4.11941336234723
F         2.87485581810608   15.35074636880148    1.42743961494690
F         0.77248889580631   14.97810232794297    1.63403264806341
F         2.17660736383157   13.35724427390848    1.76276032600847
N         4.46829581110478   13.93693941848859    4.64385653397225
N         2.30591436699425   13.82732543064056    6.18141589502348
C         2.10084721054923   14.86337195940790    3.62155056712246
C         1.96651361944436   14.63947484799080    2.10230351297724
C         5.11491560360434   13.83402803097614    3.33003841954815
H         5.87080433541585   13.04368847842433    3.36418348460969
H         4.37201776964414   13.52270514229549    2.58903551182733
C         5.74812281891500   15.14575283561273    2.88034103886070
H         6.58050275417616   15.42054925459100    3.51941262530282
H         6.11411871841363   15.03384762020640    1.86315821590822
H         5.02159882533339   15.95166245299187    2.89748911544287
C         5.30681216466606   13.49404413443543    5.76033466374202
H         4.64971713803212   13.26226215619872    6.59990678467042
H         5.83462606680351   12.57297199429081    5.49354289527093
C         6.30773041425516   14.56056239319354    6.18838318551529
H         5.81861449650631   15.52583705912602    6.28725869234328
H         6.73693196083328   14.28519582584820    7.14853171506341
H         7.11786518295734   14.65035095390560    5.47127617853853
C         2.67520987617202   15.07312335035188    6.84785025676307
H         3.23815699627037   14.85500309404115    7.76201519830142
H         3.33084187983005   15.62120152149792    6.16877012831559
C         1.46921793638769   15.94085682606777    7.19547044101721
H         0.87852295135547   15.49711937556501    7.99241567036351
H         1.81608881916620   16.91454167232465    7.53144293260819
H         0.83236632682672   16.07847025351614    6.32730821136053
C         1.53764610206695   12.84936124780196    6.94327870751608
H         0.69394221748325   13.35567357762827    7.41658283771888
H         1.13521265321820   12.11520661608713    6.23286080407955
C         2.37284138061274   12.11413738221228    7.98516571765830
H         2.79193831911152   12.80085022327709    8.71708648038960
H         1.74764658970705   11.39603997835560    8.50775493131520
H         3.18104683414250   11.57282700353879    7.49770870241543

