31
CSD_code = DUHQAY | q = 1 | S = 0 | Stoichiometry = C8H18AuN2O2(1+) | MND = 2
Au        2.93785176420445    2.38511639926041    3.77128842478412
N         4.13865561036686    3.01886799651243    5.44488038875257
H         4.96804271058403    2.42752288893782    5.46022348059487
N         1.75969015218744    1.66587590180647    2.11621423614317
H         1.44645712599983    0.72688549572680    2.35672261008471
O         2.60880431712036    5.13089318811869    6.56580663654577
O         1.83934534858145    3.83312106689277    0.28508956675524
C         3.43474744132679    2.86143875381127    6.73498753036120
H         4.09974637600525    3.14003332851652    7.55846860981615
H         3.11952610414826    1.82589167295539    6.86010896918356
C         2.22393377024771    3.79361332467597    6.73887792501736
H         1.53413567369174    3.48761633891510    5.93092707694186
H         1.70195388809592    3.74499068062692    7.69479930652986
C         3.33880414544426    5.32255570335631    5.38408061338628
H         3.62363057032752    6.37482815090227    5.36522336881565
H         2.70459300420621    5.10197782520140    4.50660149975985
C         4.57641022454311    4.42685448599057    5.34034751472114
H         5.12281717444853    4.57678088933088    4.40931728112960
H         5.22600423975862    4.67789412881404    6.18475561404020
C         0.56681641433252    2.49924829898873    1.85644498010203
H        -0.04530294858109    2.56060592553697    2.75614446826971
H        -0.02441005889682    2.06032734128626    1.04660605880117
C         1.03338246538078    3.89105514171179    1.43093795388790
H         0.18166241924349    4.52257931120740    1.17701016806279
H         1.59237293091716    4.35281662450986    2.26480565215583
C         2.95424488266139    3.00147629509146    0.46381009951869
H         3.61468635350173    3.41241392729731    1.24936962445698
H         3.48783122493928    2.99407416699668   -0.48690678053950
C         2.53501567400290    1.58655057780763    0.86039756816343
H         1.91291707913355    1.16451217921301    0.06485758223528
H         3.41143392207692    0.95568199000049    1.00630197152187

