48
CSD_code = DUHVOT | q = 0 | S = 0 | Stoichiometry = C22H24SiZr | MND = 12
Zr        1.64572778380439    3.03637369725309    2.87546825530432
Si        2.97396964995790    3.03637078797259    6.04216338710484
C         2.58833974590580    3.03637339259903    0.87223250771330
H         3.69043647822466    3.03637377579973    0.94852445506592
H         2.30646539906622    3.91827431973143    0.27596578255387
C         4.84547899023615    3.03637103639584    6.40576220967478
H         5.12345129631246    3.91257280464651    6.98149983532401
H         5.43816096847101    3.03637847896387    5.49674999541204
C         1.96773531424596    3.03636724870094    7.66094827333057
H         2.20133020482950    3.91235490287574    8.25651678052365
H         0.89821022816887    3.03637421958168    7.47800701807142
C         2.39780035963506    0.51794280220610    2.84787092347355
C         2.65326286527719   -0.21707607836788    1.67441128599786
H         3.65568650876969   -0.25878688224040    1.26740375942685
C         1.06312049773759    0.52948829799864    3.40608686415225
C         1.10860101050656    1.29204450429983    4.60528967355183
H         0.29810885267804    1.38661154315422    5.32130853530685
C         1.62354946963130   -0.89835289086118    1.07662757766750
H         1.80690844204378   -1.47206592625371    0.17973866555749
C         0.03812618063509   -0.19560290658290    2.76856963386502
H        -0.95623936722560   -0.22059125040061    3.19622867610983
C         0.32594284976637   -0.88784990600683    1.61974258526649
H        -0.44932955356676   -1.45380435114829    1.12390090176588
C        -0.41689433089439    3.03637614376620    2.07365888463191
H        -1.16106687309134    3.03637518322957    2.89037257642772
H        -0.62485908484226    3.91818807078084    1.44796969713163
C         3.23099568451278    1.27323051259815    3.71772651035579
H         4.31103416927921    1.35179194933078    3.64256704003603
C         2.45396498551289    1.67686054091245    4.83227436673076
H         5.12345465266737    2.16016242084324    6.98148806403423
H         2.20132065577216    2.16036948572246    8.25650575330321
C         2.39780403216563    5.55480266763721    2.84787374255225
C         2.65326803964920    6.28982127692798    1.67441407966394
H         3.65569197315226    6.33152987183957    1.26740670806206
C         1.06312407049072    5.54325945775173    3.40608943369470
C         1.10860313342350    4.78070245566547    4.60529178642661
H         0.29811061989948    4.68613556577387    5.32131006787185
C         1.62355601805061    6.97110057038754    1.07663058531198
H         1.80691599302886    7.54481321592482    0.17974157003382
C         0.03813147054557    6.26835316423549    2.76857230982791
H        -0.95623403842915    6.29334285958781    3.19623116674649
C         0.32594944208742    6.96060028389279    1.61974556138646
H        -0.44932132011172    7.52655693383827    1.12390373695249
C         3.23099802479568    4.79951290899753    3.71772889675003
H         4.31103624913161    4.72095111181369    3.64256977112516
C         2.45396627015343    4.39588371088064    4.83227646181559
H         2.30646601434056    2.15447150377362    0.27596680518018
H        -0.62486002639982    2.15456651357215    1.44796684172723

