83
CSD_code = DUHVUY | q = 0 | S = 0 | Stoichiometry = C34H30B2F2FeN6O8 | MND = 6
Fe       11.43737166863566    3.41292676668732    3.52534124556088
N        10.23908458195046    4.83003226303488    3.34158973737372
O        10.67795131753116    6.10842606677367    3.36118722445827
N        11.99940364747582    4.15442177528460    5.14194165372435
O        11.95803651408887    5.49033820803371    5.33675402065569
N        12.74686285720512    4.51310899286066    2.64953569049607
O        13.08144277294730    5.72123213296174    3.19012049405207
N         9.81999670432574    2.51201630131844    3.76478816760291
O         9.77484289987944    1.16033868412253    3.73822596187794
N        12.31327698515168    1.94820347734498    4.27308063647572
O        12.17027031846292    0.71428040411531    3.73267194802457
N        11.60314492648520    2.52541233144647    1.82951990573486
O        11.03011588995744    1.30003311685650    1.65917016988537
B        11.98490613506444    6.25175691612899    4.05915419429177
F        12.21904240895613    7.55704051120162    4.30902396870192
B        10.89671360929245    0.57653252427281    2.96576076898340
F        10.66413582884432   -0.73041885450059    2.72238120629462
O        12.97866366850127    2.44094679855175   -0.12834557920185
O        13.83025625728819    4.85898501672200    0.54829462780239
C         8.96410602296970    4.59614224240636    3.51389968836412
C         7.92782763063044    5.62283663514935    3.65121475266589
C         7.94830747337665    6.77307216533284    2.86485259445409
H         8.73581666501436    6.90907493627659    2.14137860760974
C         6.96237766792354    7.73143959911766    3.00987856389915
H         6.98459837355779    8.61790059415292    2.39387759166185
C         5.95186388454045    7.55928535966997    3.94071457194832
H         5.18385090662509    8.31010858363424    4.05224444728758
C         5.93281396016664    6.42354184105680    4.73488318897595
H         5.15267178585758    6.29033786973622    5.46961471188701
C         6.91162286272441    5.45960673939483    4.59401552450927
H         6.90281533584737    4.58296463066768    5.22359047511634
C         8.70846339321785    3.18573469592479    3.62183840583246
C         7.37406954806778    2.59135344057988    3.51253507462207
C         6.45987201241239    3.10935763265114    2.59364380126167
H         6.74612489735545    3.93800435421619    1.96420435677317
C         5.20222563428593    2.55156625372404    2.47487900433046
H         4.50325056520080    2.95591098552113    1.75788486966314
C         4.83837891462608    1.47470798527489    3.26808990836282
H         3.85367182237261    1.04181521680701    3.17334593897026
C         5.74379107844007    0.95091177350472    4.17536786244338
H         5.46673175908709    0.10776233749212    4.79018580523551
C         7.00658530689208    1.50048587187939    4.29815354171027
H         7.71137565234799    1.09039716683205    5.00328476119000
C        12.72781992135417    3.41906632829966    5.94187083447628
C        13.45204923306376    3.91764071176473    7.11369531865259
C        14.73878416541057    3.44944686657838    7.38444072875435
H        15.19629543597708    2.73013008916023    6.72249041993799
C        15.43249113831775    3.91886412942629    8.48237783930613
H        16.42879896803086    3.55326392785002    8.68203797329158
C        14.85528957262154    4.85651957125343    9.32420094344516
H        15.39972024471646    5.21953712254552   10.18313233916749
C        13.58246335004089    5.33124422537157    9.05616273202945
H        13.13215050040920    6.06718395327702    9.70515884389837
C        12.88248996434087    4.87022344661810    7.95657025694096
H        11.89294652833460    5.24301292336686    7.74699302001666
C        12.79102377579337    2.05767066918100    5.48534813342360
C        13.27150469881245    0.94387589998736    6.30683755077582
C        14.02342845554255   -0.08798707407047    5.74855150129151
H        14.26209010251726   -0.06490730433257    4.69747834785805
C        14.46393306740526   -1.13318558416329    6.53912862622280
H        15.04710838624514   -1.92749378320733    6.09788239014058
C        14.15649715871437   -1.16604315249765    7.88878452915889
H        14.50040895267095   -1.98463563721872    8.50323577086763
C        13.39917007310418   -0.14876932011743    8.44798288525093
H        13.14963878875694   -0.17512981447639    9.49828555364196
C        12.95846050619038    0.90089207946906    7.66631207920600
H        12.35761767687096    1.68513896252882    8.10085052427341
C        12.51692654163060    2.94059747306067    1.01022993772476
C        12.81476060301745    1.05651341373264   -0.46504417748699
H        13.15466893522384    1.01275969774430   -1.50252762385962
H        11.76448479426755    0.76589422525693   -0.40385244833283
C        13.66413980967503    0.15652426529129    0.42109479460965
H        13.63457971276627   -0.85780217205632    0.03369678238851
H        13.27436317337034    0.14460585650775    1.43611532418559
H        14.69473594305794    0.50488975859564    0.43173347525975
C        13.07237772042378    4.22580796644429    1.43044236328564
C        14.39839206200864    6.14610497201352    0.83023360719060
H        15.01973998256888    6.08732909696705    1.72778108855828
H        13.60057254692092    6.87190712691246    1.00879077591712
C        15.22559187651900    6.53381651341974   -0.38293189109343
H        15.68486403682917    7.50292174639323   -0.21339020829357
H        14.59396873158171    6.58706757844302   -1.26504969092724
H        16.00302071930508    5.79537090045949   -0.55760534273232

