43
CSD_code = DUHWAG | q = 0 | S = 0 | Stoichiometry = C24H16Cl2Zr | MND = 12
Zr        1.26460207468596    1.72990752674578    7.63254832903409
Cl        0.69490246415370   -0.41840430467485    8.28011557815600
Cl       -0.11837985934910    2.70255137823495    9.23971975096029
C         0.10964139109895    1.01872121711512    5.51648392570739
C         3.52188533291546    1.00031471097189    8.46474132146176
C         3.01424383068853    2.02663688799540    9.34902698265951
C        -0.68567916842101    2.04641927329953    6.15242567070000
C         1.29938710707878    2.98539290435995    5.47853510566546
C         2.69510770541721    1.70253792232035   10.68283291447967
H         2.30314727725945    2.46205667846399   11.34709381196574
C        -1.96063313046383    1.72684768739083    6.66067905496343
H        -2.55635451058503    2.48710938398625    7.14942361133482
C        -0.42187888061279   -0.27568686883524    5.35332264462703
H         0.15493626891137   -1.04136607714288    4.85128254367316
C         3.45149426204688    3.95873813739287    6.18738848369151
C         4.48371651735148    4.87589200667788    6.05119041579455
H         5.29534862047749    4.86973208499787    6.76351360088676
C         3.39838299390867    2.97347224659678    7.29173822577811
C        -2.43005807623566    0.44639861164078    6.50419081402835
H        -3.40531506053920    0.18397880940696    6.88583896372529
C         2.38118340915482    4.88843730592863    4.23551341478987
H         1.55827005990281    4.89214114356451    3.53623440255571
C         0.07890446637013    3.25862031623153    6.13839147636310
H        -0.27294967878981    4.23844076997378    6.44352705298083
C         3.70068197152427    1.59173389341451    7.17558818866803
H         4.20623920188321    1.13008573605224    6.33506232277302
C         2.91107567405865    0.41880576386812   11.11843540455153
H         2.67455498313589    0.15305709500977   12.13779215652044
C         1.36240668845236    1.60494747063600    5.15518030040920
H         2.11792643105814    1.14226410391929    4.53041750669636
C         2.39046722722661    3.96502777464215    5.27109333956139
C         3.75337873199973   -0.29775398870709    8.96073574811026
H         4.16124783439517   -1.06283600112191    8.31322426848942
C         2.92446095337782    3.24313219317163    8.59649850939269
H         2.67976012646633    4.22253690386714    8.99377407314672
C        -1.67508093215562   -0.54033174276270    5.84444872978166
H        -2.09642272319256   -1.52775601361071    5.73185121772359
C         3.42059993713220    5.79464963035115    4.10430015510107
H         3.40962299597780    6.50929944846271    3.29532170515868
C         4.46840153315172    5.78838599587035    5.00911386762034
H         5.27530436980681    6.49804444801749    4.90628789423268
C         3.44863839177677   -0.56683865509506   10.27089022546800
H         3.61563118750034   -1.55714380862909   10.66662629061158

