59
CSD_code = DUHYEM | q = 0 | S = 0 | Stoichiometry = C21H31BMnN3O2 | MND = 8
Mn        7.22496390216038   12.44464465169198    2.88554134922994
B         6.28238729866815   12.71199412806155    6.23366925220286
O         9.77376052498376   11.51243940612210    3.96643662757269
C         8.73370093177420   11.87194894171418    3.58063193066623
O         6.41224619947506    9.66220795495461    2.50553952354848
C         6.71569796891291   10.76976112388694    2.68687911464215
C         6.57200084138478   14.48057577274109    2.42068853679587
H         6.08081667080787   15.23901400982626    3.02243565183335
C         5.93049762060046   13.57116877289110    1.55191654404605
H         4.86717635981069   13.53715073050654    1.34609422163796
C         6.92774655208013   12.91038190573406    0.80209745797865
H         6.75071196664836   12.24935611683529   -0.03693583552065
C         8.18180147354653   13.39955025710453    1.21440529106461
H         9.13184308582033   13.18488801424312    0.74268050896328
C         7.96374470222278   14.36998753808419    2.21857720923074
H         8.71622158758325   15.03793980265293    2.62068568218459
C         6.32286076448284   12.56846896195515    4.65511784409832
N         5.16574668796406   12.54719220774616    5.23493454883247
C         3.78203023874335   12.34110774514422    4.85780974375879
C         2.98663966120631   11.80848466390926    6.05488019456710
H         3.51204107480828   10.97362867781429    6.50988035301899
H         2.01429911155753   11.45723653237700    5.71836643604585
H         2.82245825413143   12.57763212943257    6.80415650297695
C         3.20060408178384   13.68825439768709    4.40609523523851
H         3.28976793013664   14.42987665045001    5.19810281796942
H         2.15031580996775   13.57939993396495    4.14647552434795
H         3.73858769692064   14.05116398899362    3.53520099299129
C         3.69321404628810   11.32417944392420    3.71870253545738
H         4.28862285507042   11.65306502708478    2.87206412775365
H         2.66093004303783   11.20430578092771    3.39892780392852
H         4.07978479140109   10.36180189282684    4.04332964434501
C         6.79789632622274   11.45200298330810    7.16042355720462
C         8.29422413185934   11.59500460427013    7.46698937370145
H         8.64488951206318   10.74130661094374    8.04508312251154
H         8.49279351062725   12.49471518964896    8.04678036841439
H         8.85805286121899   11.63124747544547    6.54038715217395
C         6.06043488040743   11.31649599709462    8.50105392189309
H         4.99159925247645   11.17992763031933    8.35343422438219
H         6.21826631432363   12.19624143414967    9.12319555536047
H         6.43094120696755   10.45115775421548    9.04960093405580
C         6.61996350191099   10.15500735313046    6.36393601841292
H         7.11535694184083   10.24701416594336    5.39413349081860
H         5.56871521331726    9.94747639359896    6.18345070033050
H         7.04721115196361    9.31040910824499    6.90143023830230
C         6.53865905947737   14.16859951072619    6.86137162090343
N         7.65442340857830   14.89661187080085    6.69783194390975
C         7.56957715476028   16.04764693319376    7.42628537838309
H         8.35333883838663   16.77676403857963    7.44257751638447
C         6.36982230165885   16.03406202975671    8.05578526368620
H         5.91831438266287   16.74576660005649    8.71573774097468
N         5.75308533489391   14.86818639985671    7.70028723628388
C         8.79350598101014   14.55420669918083    5.89353135499235
H         9.61570024555705   14.20966599778398    6.52131385307412
H         9.12072905608416   15.43101877333738    5.33549846713339
H         8.51447315991679   13.75499721852530    5.20546093836122
C         4.46303383261176   14.46286206824617    8.17773950836806
H         3.67301829601206   15.04179667293257    7.69414933401539
H         4.39867608829190   14.61805205246359    9.25507148735542
H         4.33697732091794   13.40794927295928    7.95167232720641

