64
CSD_code = DUJFIX | q = 0 | S = 0 | Stoichiometry = C25H31F5P2Pd | MND = 4
Pd        1.95037868274503    7.21331929734851   15.23922125729720
P         0.02499884457494    8.15397773557079   14.50218036071191
C         1.05693425267020    5.94192125834380   16.59822440635328
H         1.52859673602112    5.96311789630910   17.58659628001442
H         1.15977170417130    4.92463618015041   16.19703775648025
H        -0.01239408230298    6.13727163285069   16.73885833756271
F         3.51967140838440    8.89294244558790   16.70692458354716
C         3.67872619526559    6.65272104524376   16.07301863281569
C        -1.95455180228233    6.94975536696728   12.79739258009592
H        -2.87310488584427    6.36597998277591   12.76356592663209
H        -1.15692386070686    6.35570373754589   12.35329505126615
H        -2.09343119100702    7.84098607708555   12.19022365551533
P         2.90219050492275    8.29744920222865   13.42550264485504
C         4.23441342389536    7.72618009195117   16.75597705408071
C        -1.61235359195955    7.29480548673453   14.23995703351422
H        -1.48623827400380    6.35062563465102   14.78976946490812
F         5.93408842943569    8.75263170110291   18.07301552314449
F         7.31538524453195    6.38645683066213   18.09376286989820
C         5.43805210157459    7.67672025173392   17.43870463923793
C        -2.65777980330449    8.13847720326764   14.97746950466448
H        -3.00757129790286    8.95363927106902   14.34035591891170
H        -3.52441922066774    7.53080707798887   15.24353863728585
C        -1.97275941676505    8.70797680233265   16.21702843500714
H        -1.74809766966235    7.89859131928035   16.91543599186184
H        -2.60625033262543    9.43360270379322   16.72955553989966
C         6.14173786581643    6.47552979486823   17.44784269734995
F         6.31495089993419    4.21539295202560   16.78298720236472
F         3.93082510558632    4.39705386079180   15.45510307800343
C        -0.66733236833171    9.35306837311106   15.74446422312379
H        -0.89274643217518   10.29661240478517   15.23090451437461
C         5.62772617728310    5.36965557886853   16.77899191315611
C         4.41446518837549    5.47772790202062   16.10975171541683
C         0.36512916173813    9.60053328069965   16.83849511810089
H        -0.04289798837191   10.23011125118889   17.62764865055087
H         1.23968117780506   10.09916167236610   16.41414565644038
H         0.69021965831498    8.65004898023294   17.27755151606671
C         0.33742224659581    9.24224381877676   13.06234399485206
C        -0.65964461012489   10.00593340738448   12.46446882504663
H        -1.65994766454437   10.00278874779117   12.87234984353868
C        -0.37935268343078   10.78356999887042   11.35567614710424
H        -1.15991781085315   11.37547382842553   10.90089665689908
C         0.89919181056715   10.79340773115737   10.82130818685161
H         1.11250801854430   11.38078879747336    9.94046955779274
C         1.90472279606122   10.05596583033303   11.41932682748669
H         2.89602006851931   10.06206199245677   10.99157873952237
C         1.64248137671310    9.29789531092640   12.55508517386036
C         4.68168678487459   10.56266222117358   13.29520521131493
H         5.72199783951334   10.88063429093961   13.34265549827630
H         4.17225575545044   10.92541162344626   14.18714427309759
H         4.22279378341950   11.02754979953797   12.42687518662909
C         4.60521677349456    9.04372962818102   13.24042995319334
H         5.12285260284062    8.65529751937475   14.13264243508862
C         5.23489370638907    8.36993712389003   12.01827502934276
H         4.91799942065275    8.86646944399944   11.09853224107674
H         6.32378673395190    8.42062540963203   12.06828337298984
C         4.73791576040576    6.92593672598216   12.02328281804221
H         5.13967419221021    6.40317908340734   12.89550822367177
H         5.04921172449760    6.38751906945927   11.12695279842466
C         3.21321644602617    6.99449037154190   12.12639909211795
H         2.80469029989194    7.35590908715455   11.17273319261812
C         2.52524644046420    5.69011745117776   12.51383168699519
H         2.71611099105100    4.91360386213585   11.77455095218815
H         1.44277621091812    5.84755742091561   12.57980853581887
H         2.88400044067566    5.33934812115203   13.48828717556647

