75
CSD_code = DUJGUK | q = 0 | S = 0 | Stoichiometry = C39H27N2O5OsP | MND = 6
Os        2.83296451735680    1.59920550646636    5.24660568121923
P         1.88698846404759    0.25689096079293    7.00501699306786
C         1.53071279377565    2.94574496303903    5.41492799938225
O         0.73014990684497    3.76259900390438    5.40238911682874
O         1.60926231124331    0.57222112458325    3.94073751422404
O         3.94009621801876    2.49742031471716    6.82941338608906
O         4.75062247204135   -1.92398631660568    5.26538712439686
O         3.94009288116138    4.84020530257368    3.34009302465138
N         4.20602240327885    0.23368444280716    4.66487833008050
N         4.09618411503512    2.72151708023036    4.24261801389598
C         1.74264989754405   -0.67044692307570    3.59049052934858
C         0.72893870279020   -1.20774477282884    2.75889257675772
C         0.73506857320684   -2.51947766092326    2.36556079454771
C         1.74860675760149   -3.37985144786373    2.78661204791711
C         2.75429053365609   -2.88931792041662    3.58169211944522
C         2.78100964904283   -1.55245588750443    3.99545782769598
C         3.98580258967395   -1.13945390213538    4.73426550334711
C         5.33310440315806    0.74181428711254    4.16692316328514
C         6.50527063754973    0.03822714679263    3.81007560010825
C         7.58261487107891    0.72846255726644    3.33203616622642
C         7.54581825456113    2.12903862758701    3.17795629158813
C         6.42347242059984    2.84401846314557    3.48692858304851
C         5.27654177058066    2.16505837033073    3.95558926428631
C         3.99608712740042    4.13464543793130    4.32052649961034
C         4.08376628768129    4.63529918693076    5.70190211905698
C         4.26201288251989    6.01567357720613    5.85299056894804
C         4.52201252372294    6.57525476577425    7.08086455922097
C         4.63629265992811    5.74669371781323    8.19457438942877
C         4.45666836985256    4.39004627568829    8.07991743404594
C         4.14926378549064    3.78791381893460    6.84068669852539
C         0.84204355917768    1.11028234390138    8.24221201896204
C        -0.27956910933078    0.52181828434300    8.81836102101555
C        -1.00173431941708    1.20513351220378    9.78111269013117
C        -0.61245019112125    2.47265709831561   10.18022497591868
C         0.50824218073086    3.05965073636650    9.61529014439215
C         1.23232947145959    2.38199733249561    8.65222334851923
C         3.09036695370409   -0.56175549266040    8.10004709262948
C         4.45555537777867   -0.35276438202692    7.95320482688590
C         5.34793630106188   -0.99975351295198    8.79042187635617
C         4.88383635082533   -1.84998402690290    9.77876666515055
C         3.52068698477983   -2.04479777093084    9.94204594910199
C         2.62453434483590   -1.40284070799784    9.10967159800960
C         0.79874357087210   -1.08454007720815    6.44155299226322
C         1.17892070025657   -2.42084728357119    6.44684858483033
C         0.31914125683697   -3.38095097174691    5.94142090725633
C        -0.90857223523409   -3.01314954790598    5.41911167559777
C        -1.28069222112443   -1.67762711365813    5.39120680605501
C        -0.42835654077767   -0.71400336048621    5.89284091321668
H        -0.04839791988892   -0.52982766149026    2.44098116057072
H        -0.05355560946182   -2.88933347277502    1.72650550364991
H         1.74427807995987   -4.41595545755835    2.48557466214099
H         3.56334165729053   -3.52486254375891    3.91203398201828
H         6.53646889888096   -1.03161227941718    3.94713902231942
H         8.48634377637668    0.19757051354280    3.07267064111093
H         8.42103557940945    2.63881962606221    2.80491646975370
H         6.38329794774260    3.91381449632983    3.35076566679613
H         4.19592102463437    6.62480334601375    4.96361176717856
H         4.64520375440291    7.64224067797359    7.18061144012779
H         4.85873744536888    6.17345103629189    9.16196931138732
H         4.53753006724673    3.74088526665247    8.93954144937432
H        -0.60055130392168   -0.46279565173666    8.50917607925558
H        -1.87432993423084    0.74401171765499   10.22003779438053
H        -1.18256162503390    3.00182276150654   10.92904466638321
H         0.81714927832745    4.04773303807880    9.92199769960767
H         2.10776566712681    2.83287227722843    8.20970967185929
H         4.82009478557945    0.32370943152352    7.19515833127650
H         6.40860853821969   -0.84196804017920    8.66572072903792
H         5.58166788063328   -2.35951131159327   10.42665252652973
H         3.15615287674594   -2.70087530762323   10.71896468423973
H         1.56145617564031   -1.55385705256816    9.23738065558200
H         2.14465478271832   -2.70946685752033    6.83649765800510
H         0.61609265713020   -4.41886245416616    5.94790355210660
H        -1.57306121863537   -3.76609609991331    5.02272678806770
H        -2.23226919075055   -1.38952990561877    4.97021778352632
H        -0.69482528728314    0.33499474711159    5.85751629647925

