47
CSD_code = DUJLAX | q = 0 | S = 0 | Stoichiometry = C18H20Cl2N2O4Pt | MND = 4
Pt        4.94363577374457    7.49450991557438    6.27189053554683
Cl        6.66176185737663    6.74934780795613    5.05960758650464
N         4.80365497022665    9.24147623502813    5.32289512657746
Cl        4.99800593844177    5.57427737346222    7.41039871806407
N         3.41326471908068    8.25687009480388    7.28874823293887
O         4.90034160729866   13.46888943659011    2.63386044991372
O         3.20038552977473   13.74428071489680    4.08089144949293
O        -0.19890827563411   11.36359065500251    8.81639792597314
O        -0.35690097829348    9.59216106978783   10.19382012956342
C         5.57441996842491    9.66015617301200    4.31667996537746
H         6.34463556891937    8.96909785716417    3.99711422589796
C         5.40663570870369   10.89111756930922    3.71938012064577
H         6.04008086760483   11.21132401636815    2.90793967020090
C         4.39367406770136   11.73568816445933    4.17953629003300
C         3.59087265794064   11.30120650044746    5.22497179599420
H         2.80461606733511   11.93862591865243    5.59227716163993
C         3.81552545797335   10.04655162545530    5.78244268072920
C         3.03491252131345    9.49399514627457    6.88402987265878
C         1.97823893555877   10.15367488896496    7.50034253647296
H         1.66307907601677   11.13645524999886    7.18896789706775
C         1.30087791917544    9.54195043710088    8.54677229996166
C         1.70608627747206    8.26790760557070    8.94997333903563
H         1.20286491910144    7.76330575011202    9.75745047693964
C         2.76041105347724    7.66863080332164    8.29390024982997
H         3.11404057873857    6.68140394312879    8.56523230153923
C         4.20979387808676   13.07135621138997    3.53852509460532
C         2.91188390926833   15.05387138591729    3.55365678071211
H         3.11966738982518   15.03243085586022    2.47621647712787
C         1.43648522585212   15.31801097022601    3.81276723011652
H         0.82660086812750   14.54797705694151    3.34747600946837
H         1.15952441860904   16.28356180702188    3.40063101530111
H         1.24097721865149   15.31911072687954    4.88203219786397
C         3.81320197129712   16.08355716512952    4.22517024946313
H         4.85673723613965   15.85844141849280    4.01840567145045
H         3.65449655468546   16.07445882286970    5.30120180280060
H         3.58739381431302   17.07380293144789    3.84095267600598
C         0.17290984740613   10.27707404451895    9.18952356123289
C        -1.46009201457208   10.18979578157205   10.90201755446360
H        -2.07358527546411   10.72922691157971   10.16874217964287
C        -2.24784932614116    9.05042975819288   11.53013110333197
H        -2.57910795501525    8.35238822060675   10.76571795033007
H        -3.11696986464250    9.44667535777694   12.04642514113766
H        -1.62397698327975    8.51705727436601   12.24271083334503
C        -0.93053588190020   11.17089312172805   11.94176302120639
H        -0.37707112142096   11.97011180543992   11.45453842202689
H        -0.27256328716510   10.65716682079119   12.63907411468968
H        -1.76053341013506   11.60570659881038   12.49069987507934

