78
CSD_code = DUJQOO | q = 0 | S = 0 | Stoichiometry = C33H40Cl2NPRu | MND = 9
Ru       11.11185557471901    6.69919198440640    7.82254229092110
Cl       13.01516041609430    5.66697222592947    8.77055459795769
Cl       12.30725690521067    6.88833841245332    5.79918492435392
P        10.70268533692899    4.51248641104359    7.28954449572977
N        12.71451700304472    1.96506503968411    4.70232903020511
C        10.57975444738890    7.69534335163578    9.82855036443518
C        11.28164661167666    8.65029916225455    9.03511772400239
H        12.14196118104752    9.15845124242387    9.45791374565667
C        10.84303941938429    8.97419727160985    7.75309493222693
H        11.36428742046680    9.73124276119488    7.17539929070871
C         9.69359970185937    8.34991623317721    7.18870414690954
C         8.99019817881219    7.42144480146052    7.97822790745356
H         8.06276120208840    6.99767553162190    7.60412487039399
C         9.41600891478710    7.11687262662148    9.29923910700810
H         8.80836426610192    6.46633342070511    9.91586283068183
C        11.01314309905864    7.45347338219607   11.25448009358581
H        12.05921191375624    7.76710778624689   11.34590087102227
C        10.15981857234086    8.32594599570947   12.18266956723331
H        10.49193616694114    8.20696735818372   13.21101599380267
H         9.11229713067933    8.03566247328933   12.12225580430216
H        10.24287565148831    9.37728190334002   11.91225466957845
C        10.93443461103545    5.98146352446357   11.65628947614034
H        11.37067963530962    5.84774376044350   12.64300892289867
H        11.49475287579778    5.37505482138350   10.94722195551086
H         9.90694622042615    5.62563471139930   11.68875437513623
C         9.22419939525977    8.74890177137952    5.82230323569397
H         8.38815271527288    8.13118502094116    5.50114354685990
H        10.03769348248248    8.63846217709848    5.10441784893635
H         8.91327284514067    9.79449524633022    5.82309920416691
C        10.19784566596433    3.61031228721474    8.78233822474872
C         8.89181977875938    3.75286941930997    9.24809834219366
H         8.17939853268053    4.32587047476142    8.66885273132618
C         8.50489857123353    3.16540548603476   10.43809571978867
H         7.48722765808454    3.27314895609352   10.78625958945030
C         9.42237782884284    2.44544917724131   11.18663466921834
H         9.12062573976703    1.99017700797308   12.11820753563575
C        10.72887370373480    2.32391248616662   10.74367524847479
H        11.44987281428862    1.77861022992415   11.33404920815164
C        11.11945852568886    2.90616397240825    9.55113955862816
H        12.14549591722496    2.83386757007286    9.22608204375271
C         9.33500366967285    4.30578883505676    6.10327409575116
C         9.33442737210317    5.18824097529850    5.02567861599184
H        10.11490737932048    5.93677903909679    4.96434178725208
C         8.36310586955024    5.09293004267507    4.04610325513020
H         8.37048643851069    5.77823555895471    3.21129371230723
C         7.38280900484348    4.11743165759526    4.13573019627164
H         6.61896563355382    4.04403862655676    3.37565990159978
C         7.38683134186147    3.22981704879856    5.19930050502461
H         6.62949842308996    2.46165072779243    5.26456937141545
C         8.36061844794929    3.31612545264811    6.17953002901051
H         8.36153077141918    2.61019587502998    6.99779650460248
C        12.06831246593811    3.59743543644545    6.47538263255669
H        12.49771563253590    4.34629581090208    5.79645088937925
H        12.82189370263613    3.38326077410458    7.23746201814052
C        11.69631403670647    2.34057174941548    5.66473916137165
H        10.79802615904852    2.55731065395729    5.07574598401362
C        14.06509411254290    1.88283999808074    5.21938924483468
H        14.07284979531896    1.32588980084180    6.15246029390904
H        14.52542349433716    2.86577354083583    5.38958986975519
H        14.67420432755101    1.34111194068472    4.49520946043493
C        12.66791834940514    2.74215114725213    3.48299463410475
H        11.66308401508608    2.69564556480731    3.06494016383391
H        13.36027279592686    2.30180873787611    2.76641387295852
H        12.94217849540918    3.79773177295613    3.62485548778708
C        11.36093779392556    1.15488303350959    6.58539998892916
H        10.53415906764253    1.45604243276846    7.23285857268835
H        12.21503824463665    0.91502309794711    7.21861906297789
C        10.97030348139723   -0.04413631520968    5.77115624562168
C         9.73747158905804   -0.08374413206913    5.13130824497874
H         9.05271028716350    0.74530381114040    5.24265551219457
C         9.37990795736126   -1.16965078455656    4.35359166946944
H         8.41774609173592   -1.18623704868163    3.86173503781949
C        10.25211884358074   -2.23456257613363    4.20412922965348
H         9.97363193998858   -3.08344971537602    3.59693173320484
C        11.48237592728756   -2.20436981787802    4.83681718610896
H        12.16837007806747   -3.03143929881844    4.72378560300447
C        11.83751210312610   -1.11572336976166    5.61347783446742
H        12.80053922987931   -1.09859756037514    6.10208369654174

