79
CSD_code = DUJQAA | q = 0 | S = 0 | Stoichiometry = C37H34NO5PPt | MND = 4
Pt       10.61177841934961   -1.00456759143327    3.15311577781455
P         9.56269573470752    0.49302878370665    4.46028968661639
O        10.50326905113400    0.55627183901889    1.71419926560502
O         9.37552122406033    3.98522620307093    1.53768500975631
O         6.42773608514951    4.66035904099726    3.59134003716701
O         7.64034270656955    2.86155234534448    4.49322010992667
O         9.16434816191037    2.45099487261492   -0.18140292498377
N        11.55772127083807   -2.22651010833520    1.90260772486999
C         9.82962473425349    2.74363914073265    1.00750975558967
H        10.90799537529313    2.88010326125109    0.82935761123428
C         9.60105762353743    1.53534189192913    1.95655595565274
H         8.56215364679830    1.20018648870319    1.75320766526962
C         9.68318294014840    2.02745620696056    3.42583011678991
H        10.72832988383724    2.34224050234230    3.57168724067329
C         8.76595146815303    3.20524784208804    3.71443068509960
H         9.33393959400016    3.99362479038284    4.24502192548676
C         8.27133835448437    3.79047686175362    2.38420053129634
H         7.55995059166266    3.08668551443585    1.92898382101550
C         7.48585927110682    5.05049326481739    2.73452779630770
H         8.13923613946961    5.78627095440028    3.22579547791212
H         7.01894308132685    5.50364639339956    1.85968031133313
C         6.85418419706915    4.00398368197675    4.75557566187900
H         7.46766447259175    4.71302837042691    5.35884871040208
C         5.64616252738503    3.53880014495352    5.52708680779521
C         5.54482429792543    3.75803325419929    6.89220808860412
H         6.32379252559268    4.29867068832084    7.41072109078106
C         4.44479738376442    3.28911740535526    7.58956184363487
H         4.36866017301791    3.46392813902032    8.65274323716542
C         3.44401970305531    2.60136796381195    6.92520063463230
H         2.58421732019351    2.23975119482604    7.47019527125078
C         3.54703509291944    2.37791869528710    5.56230844515890
H         2.76862786278107    1.83939742398930    5.04263089836871
C         4.64762401978738    2.83984748970508    4.86431937613660
H         4.74259709456146    2.66993933055004    3.80420503639647
C        10.75138402616946   -2.61580376930398    4.33332878438587
C        10.23781960667069   -2.81541834879270    5.61300266638914
H         9.68908638487996   -2.01671164441019    6.09925972005029
C        10.41062919583437   -4.01635317428943    6.28074072109142
H        10.00316271890686   -4.14353393194412    7.27391409036796
C        11.10478847413312   -5.05899878750706    5.68441327907402
H        11.24084235712249   -5.99184065966418    6.21198647287707
C        11.61446847174182   -4.90473916532036    4.41072815778429
H        12.14269550538855   -5.72452871610339    3.94548282324985
C        11.43914366198458   -3.69924856546551    3.73373351240316
C        11.90360481009033   -3.44511681963135    2.37558324127625
C        12.62597529742304   -4.32537352067075    1.57076047799558
H        12.90449170548866   -5.29584789221845    1.94869899811593
C        12.98415456536841   -3.94473881502420    0.29108812480236
H        13.54434372941161   -4.61793274596242   -0.34094692939184
C        12.61493118687371   -2.68774369524303   -0.16937172040832
H        12.87664878409521   -2.35857288180600   -1.16202973993291
C        11.89887340359437   -1.85705889756357    0.67475365174878
H        11.57890672240640   -0.86481688046314    0.37879774322289
C         7.81463975420104    0.05240017854061    4.66772051240261
C         7.26526366569707   -0.61823230150513    3.57638070888156
H         7.89638280439538   -0.82664049447606    2.71416881657906
C         5.94669498461615   -1.02995307066899    3.60300730284235
H         5.51919285580811   -1.53680760914452    2.75010176835402
C         5.17825656895819   -0.80358300069612    4.73404363755907
H         4.14726800782772   -1.12469962762939    4.75985957863695
C         5.73772016506823   -0.18718586726801    5.84058910217411
H         5.14532398336522   -0.03492261728805    6.73090814305164
C         7.05349691920506    0.23874676987123    5.81349449254493
H         7.48272488726794    0.70935356539956    6.68401739767595
C        10.23200544913137    1.03592847983532    6.06099720670779
C         9.67506065669260    2.05395110486126    6.82896247544500
H         8.77800017034020    2.55035368603557    6.49166291411437
C        10.27711319299942    2.42756409619617    8.01772824262343
H         9.84162724665667    3.21519783141792    8.61609447261228
C        11.43718684048140    1.79953368512032    8.44251851959150
H        11.90105542238943    2.09638916682982    9.37175186893042
C        12.00540308945204    0.79836703560221    7.67159800766966
H        12.91485189126646    0.31505661690544    7.99652761376276
C        11.40627475296685    0.41941625274077    6.48399264742271
H        11.83609567034619   -0.35881548143221    5.86253446595422
C         9.47828916392321    3.32862192087843   -1.24109143778562
H         8.86454593119897    3.02051449877235   -2.08484428621075
H        10.53957622605695    3.25269566855762   -1.50511278957914
H         9.25111706362218    4.36417614329805   -0.97098413969831

