74
CSD_code = DUJQUU | q = 1 | S = 0 | Stoichiometry = C32H38ClNPRu(1+) | MND = 9
Ru        0.47302252767761   21.79705435179547    9.09873389515051
P         1.80444233905413   22.59808525271731    7.43330332519213
N        -1.04492416529313   22.00608076008817    7.55218876232963
Cl        0.82728954704092   19.65491047823284    8.19929575988634
C         0.37310755663726   20.69576357397888   11.21281223941905
C         1.62330563501674   21.33882902244269   11.00801252138747
H         2.53666838433215   20.77248617696113   11.16107810780329
C         1.69887990020743   22.72058575397114   10.75806594468564
H         2.66895450725965   23.20778332870250   10.72158523742130
C         0.52584996345327   23.51900901308999   10.69813904343818
C        -0.70871580426703   22.85678430810514   10.80976510873472
H        -1.61933349036948   23.44796178819164   10.83657008497660
C        -0.78809936425034   21.46840617005314   11.07812370104962
H        -1.75578474653666   21.02651095534454   11.27949606502814
C         0.34231738574325   19.25902209461601   11.66640903367347
H         1.24444030279591   18.76417750666738   11.29015957451755
C         0.38867289828514   19.25478695875947   13.20060293735372
H         1.27400992200465   19.76986939450422   13.56766844005002
H         0.41135521722891   18.23049948873066   13.56155270280401
H        -0.49214823554712   19.74534692738851   13.61028944909588
C        -0.86885748577933   18.48006119715009   11.15735285129065
H        -0.75193694732287   17.42980261575772   11.40934547421442
H        -0.94360744485036   18.56220695978912   10.07503358817390
H        -1.79314138797299   18.82979398993160   11.61146790815184
C         0.60978442837321   25.01397260850252   10.65327364807627
H         1.49748192748786   25.34594307325131   10.11957331513752
H         0.66877432416804   25.39654311287788   11.67381024841584
H        -0.27030014342438   25.44886388589111   10.18399539374525
C         2.47376618462691   24.27846133568987    7.63871371604387
C         3.71623007351614   24.39221584075198    8.26404741064011
H         4.25427446894908   23.49514519166221    8.54008901536020
C         4.26760696611752   25.63520907475022    8.51087575961504
H         5.23298117021753   25.70980182855027    8.98778032036365
C         3.58400172533735   26.78318456235792    8.14121527471245
H         4.01510099235431   27.75413340899594    8.32843789907292
C         2.34607580029941   26.68000794355859    7.52871870421420
H         1.81094525979479   27.57144668832120    7.23875164575512
C         1.78823799760716   25.43676342963407    7.28548392477654
H         0.81977485861798   25.38642443601958    6.80942572241722
C         3.29740029760088   21.69007035451987    6.94689562834112
C         3.84326626903375   20.72747412987141    7.78720091045162
H         3.34308528898044   20.48686548310773    8.71546329489394
C         5.00606453714210   20.07190307939526    7.42323485090610
H         5.42343429812668   19.31623795422713    8.07106414660120
C         5.63112150818942   20.38382928145228    6.22744484268708
H         6.53505853310750   19.86866632472683    5.94131770383679
C         5.10147480531112   21.36115913479038    5.39833627027819
H         5.59639895817889   21.61079793155727    4.47221478738755
C         3.94028390379449   22.01969049011302    5.75533294856623
H         3.53702079780821   22.79536580508334    5.11824303661297
C         0.74332095749149   22.62884273041669    5.91845551216637
H         0.46308487578687   23.65428290173874    5.67775725450046
H         1.29680403536256   22.21876158085393    5.07015158801158
C        -0.47613571798310   21.73999650400262    6.18506588460932
H        -0.11362969354152   20.70518285026888    6.23607938083885
C        -1.62188710250038   23.35017123441973    7.63424744698186
H        -0.83328516039536   24.10085321904096    7.57865443717115
H        -2.15065827213507   23.46944412396226    8.57837522559901
H        -2.34106725069699   23.51065894049322    6.82650088758761
C        -2.10323632224914   21.02666725669317    7.82688612798812
H        -1.68409355980094   20.02038676599335    7.79497058378740
H        -2.90475235749351   21.10264217567613    7.08702655799652
H        -2.52740203842307   21.20728426027140    8.81441799282742
C        -1.50030693309916   21.81147618156499    5.07027783153348
C        -2.07633519729046   20.62430848965638    4.62444848518135
H        -1.77555679619668   19.68784879475430    5.07085390244212
C        -3.01774971245944   20.62687863882288    3.61121929176945
H        -3.45049482965786   19.69555265169363    3.28062762740310
C        -3.39807090394909   21.81998568912572    3.02054534048267
H        -4.13169201629474   21.82600071592971    2.22988444924439
C        -2.82112664348420   23.00460830108278    3.44254116239215
H        -3.10104845998795   23.93827795786117    2.97915772359221
C        -1.87760581428882   23.00187748575846    4.45633845385765
H        -1.43478733259754   23.94341609327553    4.74622467727342

