39
CSD_code = DUJZOX | q = 0 | S = 0 | Stoichiometry = C13H15BrCuN5O4 | MND = 6
Br       -3.88574350100074   -2.50435006630865    1.90079464634325
O        -4.70274090879910    2.70265108742033    2.17206763665621
O        -0.40532062225755    3.33577258411643    3.49918996661844
N        -2.22946323455904    1.25100269981342    2.02577166232111
N        -2.75471010179061    1.04541733376605    4.54056885050301
N        -3.67527502722626    5.49544926863673    6.04844510683380
C        -4.77614730880855    4.69540258401543    0.83174178787474
C        -1.88341767613614    1.42927845461317    0.74901673094961
C        -3.09794228297460   -0.86957167671347    1.45081296015870
C        -2.96213973125822   -0.08641423612814    3.87510743249588
C        -4.02853857472080    1.88119101173464    6.47742372342748
C        -4.07055932773943    4.45168898880233    6.85820123420391
Cu       -2.72946240526692    2.55664538176213    3.46454297607095
O        -2.98554378780289    4.04635224807900    2.26463778837959
O        -3.18192517434766   -1.18913257461403    4.35295048422713
N        -2.18519545030585    0.55582912130476   -0.19828432530316
N        -3.27332049426417    3.67843296939892    4.94867381014334
C        -4.14399419631490    3.73693009953987    1.81155185382643
C        -1.08716431994999    2.62112562074088    0.36676372300634
C        -2.81674280274912   -0.55298783089573    0.12500473519962
C        -2.78706675964221    0.10132863461035    2.39803260510890
C        -2.85070496979383    1.03951080641909    5.97342255907907
C        -3.80949773868466    3.31087891866770    6.14387104900796
C        -3.19630435561051    5.00746507860885    4.90553647290155
H        -0.28070605586714    3.59301280452758    4.41682186269136
H        -0.64869062915161    4.12550071351860    3.00568091774506
H        -3.75509096003140    6.46689600418959    6.30202859003599
H        -5.32936239948969    4.13663958254564    0.08221286348838
H        -4.01885482866773    5.31993489609953    0.36597351871381
H        -5.47600648477636    5.32765628833481    1.37559044763589
H        -1.61507408114917    3.52731148099679    0.65512786443721
H        -0.90525713645827    2.60954320480403   -0.70320577708491
H        -0.14499446010320    2.60397589078300    0.91243111635032
H        -3.08418227837124   -1.21732008749741   -0.68586709238849
H        -2.98681036176418    0.00367375126022    6.30000372380574
H        -1.91250763133110    1.42630163027353    6.38830468934245
H        -4.13422003238753    1.77159321561392    7.55606333618752
H        -4.94568470059219    1.52499160261288    5.99935627202404
H        -2.82723720785409    5.56969251454323    4.07283219698374

