54
CSD_code = DUKBIW | q = 1 | S = 0 | Stoichiometry = C23H20N7O3Pt(1+) | MND = 4
C         2.57944268249173    0.06646457898551   -1.23969052988052
H         2.63194997649850   -0.10068320575031   -2.30685699516659
C         3.33898706054341    1.05853164124789   -0.63856203656182
H         3.99176046663322    1.67310357119879   -1.23635810962361
C         3.24364498602701    1.23618450197793    0.73212211421372
H         3.82442562971646    1.99418333206162    1.23364143726426
C         2.38509759019729    0.42017783750508    1.45216487236250
H         2.29187490829823    0.53932288628340    2.51908870877681
C         1.65078022175064   -0.55714616152199    0.79143917895750
C         0.71506013611739   -1.47619101989050    1.46123322906271
C         0.37362072813554   -1.51019232961898    2.80704891709050
H         0.80638630471587   -0.80887106847651    3.49899095575508
C        -0.54581312151017   -2.47615268362435    3.24236357426757
C        -1.09022870828280   -3.37947987785780    2.30841591229474
H        -1.79062529820259   -4.11540562046057    2.66404576885604
C        -0.70631224988342   -3.29129219564584    0.98432179333439
C        -1.13411540532764   -4.13324573997211   -0.14550609106617
C        -2.06004586650357   -5.16284451791993   -0.03283494834534
H        -2.51418671183180   -5.37677782818159    0.92059859690936
C        -2.39546823250074   -5.90596797292534   -1.15394057610457
H        -3.11546109325304   -6.70590872918485   -1.08282993704802
C        -1.78828507034621   -5.60137046180624   -2.36171015173250
H        -2.01822551990437   -6.15609330050400   -3.25652640136005
C        -0.87224739904593   -4.56166648431816   -2.40862385466104
H        -0.38364403573888   -4.29468362117952   -3.33573368162427
C        -0.47077324787392   -1.77142037515704    5.51433536113440
H        -0.73415436516285   -0.72874121078834    5.32017874747461
H         0.61180383518110   -1.87035281601074    5.62583967151587
H        -0.95880170542849   -2.10204882245287    6.42866330717385
C         2.53101356852053   -2.56599173988205   -3.36745244086024
C         2.13986591722732   -2.12963000807006   -5.63645040773403
C         1.27924407757863   -1.60427864035266   -7.49244058583951
H         1.15984780385785   -1.42074392926364   -8.54142189304640
C         0.82130332010619   -1.75746159440753   -5.37540809269339
C         0.30704302340075   -1.78222452506600   -4.04160633693197
C         4.36012188221460   -2.91270540792490   -4.96959592896871
H         4.94616537921634   -2.03141825712544   -5.23171420268153
H         4.35716454691654   -3.59483235310874   -5.81685731173589
H         4.78231085102427   -3.39045890317387   -4.08812985199305
C        -1.05181021781082   -0.96344647508388   -6.82814562143919
H        -1.04288551099411    0.03688305592642   -7.26326881950416
H        -1.57182029814404   -0.93717200186465   -5.87172341388835
H        -1.57283738449265   -1.63831813065305   -7.50876262739405
N         1.76401852284275   -0.72511860690833   -0.55391106415726
N         0.17155894734093   -2.34961817910244    0.60832783384382
N        -0.55253931050216   -3.84141143791880   -1.34005320953054
N         1.24388261315821   -2.19840877870170   -3.13833805904299
N         3.00040530276348   -2.53256392681704   -4.65664088691232
N         2.40294279249920   -2.02892982692415   -6.95588269560885
N         0.29116925272223   -1.42152064956986   -6.59744565178333
O        -0.96243753287469   -2.62404336967347    4.49614451389778
O         3.21794803055496   -2.90423990728671   -2.40282699103280
O        -0.81899064367528   -1.49812156366922   -3.62360613085453
Pt        0.68346857103901   -2.27285714938117   -1.22000895737784

