47
CSD_code = DUKCES | q = 0 | S = 0 | Stoichiometry = C16H24I2N2O2Zn | MND = 4
Zn        0.37099492163812    7.89820844678911   10.87524616064198
I        -0.03725613842346    8.54277605564759   13.32470226019719
I         0.50717813809209    9.80795904602240    9.18964909350176
N         2.36352464803574    7.17828974204023   10.80899369642921
N         3.91348788029205    9.98832094278904   12.54950756877733
O        -0.31070975599750    6.25458652280469   10.38606880548353
O        -1.92346748324355    4.03651113808325    9.57091472378976
C         1.65412126485739    4.92638741065516   10.18563252901652
C         0.24040238058212    5.13420394698323   10.10840125993993
C        -0.56178952760819    4.01535897037226    9.69462893028502
C         0.02077285583528    2.78854374626519    9.47374652168563
H        -0.62641316219715    1.97002553338672    9.19762309301107
C         1.39813792599514    2.59096526607677    9.60060143029073
H         1.81642063152008    1.61276085671085    9.42095334311302
C         2.19712132799458    3.64481745061243    9.92862124733054
H         3.26767200824136    3.51573418051289   10.01177973888696
C         2.58564183953818    5.94816996822335   10.48009016042872
H         3.63552756284979    5.63753060072920   10.38573728869088
C         3.50366535095220    8.04907383682874   10.96045961386367
H         3.35968531427672    8.90161214570489   10.28694187104263
H         4.43082378835560    7.53946679337625   10.65563911131779
C         3.62200337162232    8.53818439123497   12.41529121062933
H         4.41225871714189    7.98375042144554   12.92478509238213
H         2.68246925244272    8.34284886300383   12.93892886894110
C         2.77309268155227   10.85992088162778   12.16058065828579
H         1.95813498652945   10.68075924508084   12.86473652847383
H         2.42768391830729   10.59646595782329   11.16011546974913
C         3.18995228351807   12.32032413791835   12.19481983851285
H         3.99136611171739   12.50056521010029   11.47382452346433
H         2.33612540635085   12.92434583559950   11.89225342745867
C         3.64696045919594   12.70269553848599   13.59806960997437
H         2.80887430336040   12.61529038014764   14.29012747325392
H         3.99182315085678   13.73549544846330   13.61562258580619
C         4.77174554658901   11.76911560744217   14.03486873243007
H         5.65224003783916   11.92883154080117   13.40690195843193
H         5.05923229207466   11.97561412508635   15.06536670188210
C         4.32508131550165   10.31604776458195   13.93561558137956
H         3.46510222043738   10.13429920941743   14.58418184202254
H         5.13648633304142    9.64822113182455   14.23327615771549
C        -2.61511588617431    5.22375771440643    9.22245212994430
H        -3.66259074764359    4.90805510975095    9.19313965820886
H        -2.50220596604339    5.98707546215386    9.99773336905696
C        -2.19564662393603    5.77784704987812    7.86585993139257
H        -1.16810076507280    6.13324650613960    7.89763373616455
H        -2.84182130149418    6.60889998534868    7.59505367131133
H        -2.27079225465651    5.00461472965882    7.10372271127162
H         4.69359938532570   10.22292515195697   11.92450008411907

