44
CSD_code = DUKFOE | q = 0 | S = 0 | Stoichiometry = C15H21MoN4O2P | MND = 9
Mo        2.41022907273609    1.24866576463714    3.79378582301955
P         1.73622483142522    2.31876402382689    1.81298377783282
O         5.44098744407694    0.76745217128653    3.69631671105607
O         2.96220459030240   -0.57151160115039    1.38940207643666
N         2.93373613696169    3.28525083612680    2.86205999050234
N         0.64993172373382    3.60672167286694    1.99636230291019
N         0.61824430054896    1.44293560921826    0.79991569038273
N         2.79045396475730    2.54538496521376    0.52766598060467
C         4.18171016111793    3.52019763432359    2.17343392082045
C         4.17604355221269    2.64335589085217    0.91419273462505
C         2.33822164643049    4.44269575424558    3.48051539007466
C         0.83574593911174    4.46228342484168    3.13658916258652
C        -0.70337796388761    3.30953894131200    1.57938042248925
C        -0.71052303305936    1.80440219356060    1.21792897719123
C         0.94241500631715    1.62013293764453   -0.60299762570974
C         2.46333327775090    1.75586433787410   -0.64048236121393
C         2.21083732403953    1.06491197177217    6.11336347840590
C         4.31750291881624    1.01408882889896    3.73524416776694
C         1.29429044031302    2.04758753247466    5.70915614547607
C         0.35501516451939    1.45147753640387    4.83903432830080
C         0.68263951348229    0.08183855942451    4.71961049548347
C         1.84150910646370   -0.16244989572404    5.50014051933675
C         2.75017508376348    0.11906576482413    2.28626406219067
H         4.22694211678163    4.57170189472795    1.85821852784568
H         5.06015466559474    3.31130240497374    2.79617558657390
H         4.61589163679592    1.65350580240945    1.11752830217869
H         4.75781180421136    3.11579104561274    0.11497826609853
H         2.80046653734204    5.35018261997788    3.07224820185581
H         2.49198471930402    4.46020973469130    4.56718167365308
H         0.23016168586780    4.12666052599072    3.99312731091363
H         0.51716755442412    5.48447562078700    2.89567203883019
H        -0.97354429027803    3.91942738863652    0.70779311681175
H        -1.42402244494169    3.52140266687751    2.37727961142350
H        -0.94696012914378    1.22214423026986    2.11503921331620
H        -1.44918571089305    1.57419595513004    0.44777324475379
H         0.47898355741929    2.52465184658633   -1.02206103471330
H         0.60837278137495    0.75339848389504   -1.18394631866299
H         2.79512465001804    2.26959082138567   -1.54948557517341
H         2.93648634135826    0.76651287735162   -0.60188819937009
H         2.96823944746047    1.18257164838852    6.87851001764585
H         1.23624214400044    3.05308329874793    6.10994106082616
H        -0.56963111691230    1.90467531313775    4.50626325969172
H         0.07458115827160   -0.67628024848313    4.24199457818568
H         2.23548269000071   -1.13865878586667    5.75689094672867

