71
CSD_code = DUKMIH | q = 0 | S = 0 | Stoichiometry = C24H36NiO4P2S4 | MND = 4
Ni        7.68908150879469   19.16946784210912    3.08244813600808
S         9.88043067855200   19.37974832123637    2.47228081405249
S         8.30130002062622   19.69578491382785    5.23064007591418
S         7.09281436780891   18.53755268906244    0.96825971164919
S         5.48150116621274   19.06021410449283    3.66992843928217
P         9.51918839219280   20.67171854262280    3.96855864880712
P         5.82067440047168   17.67148182022260    2.25901598835792
O         6.88954953472039   25.64813968755576    2.08395548916749
O        10.84945958779725   21.21533167624237    4.65671051138204
O         8.14824919928139   12.76084184576733    4.64728367871685
O         4.48058844813386   17.12911245288522    1.58701296064377
C         8.77209780981211   22.21473784840988    3.38240520361036
C         9.27556680420832   23.47235280536216    3.69072313673008
H        10.17410847551973   23.56011643344106    4.28052049307275
C         8.61934431696877   24.59318954683989    3.23549548302924
H         8.98764559049771   25.58199263288516    3.45884578227701
C         7.45184788636406   24.48057188359784    2.47232619375947
C         6.95164878558736   23.21481227911491    2.16699048876748
H         6.05482887715046   23.09305219544165    1.58130366701628
C         7.61552921337199   22.09473956194257    2.62496822353226
H         7.21185425411656   21.08907893916719    2.37081784726537
C         5.70813225845523   25.61196840823348    1.31613548413976
H         5.86826214970332   25.10692745075746    0.35857163308037
H         5.44480670674159   26.65260767872923    1.13471023440171
H         4.89322425428505   25.12161565218017    1.85739579919501
C        11.66474262749472   20.38881693875566    5.49134726651051
H        12.57262415423984   20.14726892622573    4.93037072821642
H        11.13443984412021   19.45879349732287    5.72136087621248
C        12.00630129617000   21.15518314151490    6.76218372290106
H        12.44716338254537   22.10937653293809    6.46528580186674
H        12.76020535604427   20.58844253599534    7.31172804729663
C        10.79406684101674   21.41657767425342    7.66531087811764
H         9.97233011323293   21.78732599824696    7.04216907650328
C        11.14263236608126   22.48684335909891    8.69728017279396
H        11.96718767145476   22.15271877502152    9.32393628276543
H        10.28680077181989   22.69025741014978    9.33598244723446
H        11.43430398028192   23.41523476548126    8.21112155826938
C        10.33291542321663   20.14252865174108    8.36764492401607
H         9.99403237962175   19.39844885098393    7.65212198497678
H         9.50044410997172   20.36361800343522    9.03072955430618
H        11.14263264746124   19.71929679434006    8.95919596213414
C         6.49984682895197   16.14411378856360    2.95745602653638
C         7.72286637375127   16.25033630818490    3.60460236780673
H         8.24754172251865   17.23061631889002    3.65843788355183
C         8.31380355149172   15.14634639440974    4.18498395024939
H         9.26387348136912   15.25771561753406    4.68208067337460
C         7.67104784174852   13.91032277460295    4.11701564080802
C         6.43974043251659   13.81045250788969    3.45953421260406
H         5.96218792330511   12.84426542856392    3.41849525400082
C         5.85487912304970   14.91567806937873    2.88458087192186
H         4.90478629620691   14.83843945059593    2.38050197247958
C         9.38071119780151   12.78723715093565    5.33068744435666
H        10.19805064736628   13.09436374779283    4.67119036900915
H         9.55227464815069   11.76537956638150    5.66467142891590
H         9.34217634693901   13.45054089356234    6.20009474583583
C         3.60583959569807   17.99272197310212    0.85493834671669
H         4.05208029016696   18.98882754217197    0.77093990785507
H         2.67925709748138   18.07296537677594    1.43154176441112
C         3.33143116682647   17.39254219375833   -0.51757140308083
H         2.50711664925375   17.94447245918085   -0.97327954046053
H         3.00820680261184   16.36015687098885   -0.36770953507835
C         4.54689912327248   17.41281162476598   -1.45262525630443
H         5.42036127404377   17.06034932923069   -0.89273572739217
C         4.83506550940571   18.82145381638785   -1.96371425272919
H         5.69178288792150   18.80644128558297   -2.63224695498240
H         5.06878889901794   19.49691298984723   -1.14553570378980
H         3.97706154354118   19.21209254091795   -2.50784418486872
C         4.31125825588775   16.46769559360425   -2.62825945821501
H         3.43602004804707   16.77948961651360   -3.19495414458190
H         4.15235932776014   15.44908739007907   -2.28143970035235
H         5.17062746209289   16.47148231170350   -3.29391040616590

