37
CSD_code = DUKMUS | q = 0 | S = 0 | Stoichiometry = C12H17MoNO6 | MND = 6
Mo        0.12531261085304    1.81388149957010    1.98822631352584
O         0.33994898439194    1.91536999598360    0.17824984361207
O         0.86190561400672    1.36126309513250    3.64011411842512
O         0.50477571808613    0.87720673353321    6.18614472421976
O        -0.28817510383598    3.37788427734616    2.32922608353177
O        -1.07793674152545    0.68631667964716    1.94408176407826
O         1.27444603889822   -0.52889269729792    1.49416093373837
N         2.28752924193585    2.34324130615718    1.70139256309872
C         1.24856306135664    2.79022612682743   -0.39206294306017
C         2.59758680870882    2.52459274766567    0.31161891273351
C         3.10108584923888    2.73521242640477    2.60894001703724
C         2.88942185875472    2.54817655868267    4.01037891666719
C         3.82191680317811    3.04006955149691    4.94469179502951
C         3.63690809717083    2.83190192689126    6.28512101791605
C         2.53073104632361    2.11298938882799    6.74811152835365
C         1.60424564783905    1.60294280808560    5.86224835913504
C         1.75766720780197    1.83226933564911    4.46133110813085
C         1.34783548466590    2.58433226775304   -1.90464165166659
C         0.19415149766288    0.70159624821371    7.54760131228726
C         1.45662364113976   -1.39444751902431    2.60371858672669
H         0.92785073567338    3.82839753828163   -0.16579258330623
H         2.99662666884106    1.57545862737719   -0.07372642676513
H         3.32525124144749    3.32884747565028    0.14248670866980
H         4.04101002903470    3.22224812347663    2.32191441763908
H         4.67995714264902    3.58951288968723    4.58748077876068
H         4.34617391944603    3.21832829188321    7.00022454270030
H         0.31671989198157   -0.50145729057510    1.31175905515709
H         2.41546807726791    1.96354574144204    7.80997884673332
H         0.38242037829546    2.79076304822253   -2.35838374711787
H         1.61380381677148    1.55008185299465   -2.11334186886095
H         2.09507440752272    3.24694270911326   -2.33348477907749
H         0.06184941778656    1.66205077961978    8.05514042886958
H         0.96504847186951    0.11893604237783    8.06352426772961
H        -0.74530112860108    0.15221507529224    7.56492642361957
H         0.81635969165981   -1.10756500359988    3.44454446076117
H         2.50351096195535   -1.32521606754767    2.90382371299386
H         1.23643290974863   -2.42822259124516    2.31457245797534

