24
CSD_code = DUKNAY | q = 0 | S = 0 | Stoichiometry = C5H9Cl4F3PtS2 | MND = 6
Pt        0.76148016371322    2.45983326592257    1.68519823926428
Cl        1.21311726215961    0.27035794040638    1.13611761790704
Cl        2.80160852747731    2.63975878315669    2.74980481610998
Cl        1.65625878576767    3.22384517774282   -0.36637618127362
Cl       -0.26056624152052    1.79785058182774    3.69442085714095
S         0.20190509530655    4.84587264822108    2.32828630276066
S        -1.40185513295138    2.33898981805435    0.41866335734097
F        -0.86253764047796    7.41129434691163    1.00437978801438
F        -2.59199796441630    6.56254641890003    0.05748807855620
F        -2.40973268355567    6.51630771556712    2.19747453637202
C         1.63118926913498    5.75950128774849    1.71487600162411
C        -2.43161696554647    1.16322492876369    1.32307219307599
C        -1.02601811142429    5.03056058481445    0.95453250957448
C        -1.71942046809504    6.38970162759731    1.06037749948673
C        -2.06882120945127    3.92276617395927    1.06910689082141
H         2.43317884742885    5.54075703284814    2.41604708588524
H         1.40859230775184    6.82166372290443    1.71341999744277
H         1.90077529220956    5.39263358197920    0.72627295131133
H        -2.13873709917692    0.17676600988808    0.97451193014152
H        -2.23301671659675    1.24832107589915    2.39035289756764
H        -3.47325776480855    1.35265868352276    1.08258156851638
H        -0.48746258753187    4.98477681070554    0.00045135368892
H        -2.95089679670546    4.16771784639812    0.47256588458764
H        -2.35726816869857    3.77589393626035    2.11227382408366

