58
CSD_code = DUKPII | q = 0 | S = 0 | Stoichiometry = C15H37ClP4Ru | MND = 6
Ru        7.50784528209476    4.23322244620543   19.65018854445171
P         8.11007399408570    6.42277411293036   19.56102455732109
P         5.40214235605882    4.49542197464697   20.46363190791367
P         7.49140108489628    2.01252874165565   19.11306401841980
P         8.42581171376264    4.05396084311976   21.66665182333740
Cl        6.51847049355052    4.28038836050171   17.45511473744590
C         7.33589038861774    7.87726237629623   20.39066520762762
C         8.20199275839686    7.06655341182311   17.85827900533668
C         9.85818479478126    6.67026150803347   20.09651948713468
C        10.12294124640053    6.34165579746105   21.56326333740228
C        10.07698567144786    4.84864322118598   21.88431408473280
C         4.28890038191767    5.63039732622123   19.56163451202375
C         4.25337328271814    3.07369749668069   20.60834830603355
C         5.25784672183548    5.17982359052578   22.17264398117302
C         6.07328300365874    4.38553554002788   23.19081391442697
C         7.55942235891895    4.73078279370525   23.15458442707339
C         6.04680836450630    1.06551400033598   18.49514041165795
C         8.64919049868600    1.65989689403484   17.74314719168398
C         8.11028216289212    0.83181434643851   20.39469518589349
C         9.27517423582040    1.41501539181901   21.19033894418725
C         8.80879998811731    2.35973131704254   22.29662301442062
H         8.89913021348887    4.13288262590072   18.99382721331628
H         7.26106344811086    7.71580810651950   21.46490646884353
H         6.33503518450600    8.02890988002174   19.98891906323788
H         7.93595978485220    8.76721265477273   20.19909219793860
H         8.79693525390420    6.36883368850926   17.26842059816083
H         8.63912169868641    8.06590542067413   17.83452584565213
H         7.19310456574564    7.08103286435636   17.44323294646243
H        10.12199336892218    7.71680115826996   19.90355595826409
H        10.47305445976796    6.03265269905093   19.45396649687978
H        11.11937814779319    6.71372542223835   21.82767715631224
H         9.40430660670686    6.87606224317589   22.19033900018725
H        10.75953145445102    4.30856086613573   21.21823185545456
H        10.40109208187904    4.68802224689905   22.92017688109284
H         4.73561161508524    6.62203327316073   19.50883402020909
H         3.31280644086427    5.68315084417209   20.04606948819189
H         4.18880981458236    5.24685607965990   18.54524432041798
H         4.01838975737516    2.74126911457263   19.59756951157427
H         3.33554975592878    3.37655228055034   21.11486096594274
H         4.72594086533951    2.25765246565182   21.15491965399843
H         4.19736846226966    5.16713171915490   22.44774917770749
H         5.58860100765578    6.22222248269537   22.15444228466593
H         5.94528856393029    3.31573554043564   22.99659173216036
H         5.68775008306662    4.58660189795885   24.19627666039662
H         7.68330850577363    5.81828111214098   23.15607947368222
H         8.06546213171599    4.32956241856256   24.04061198162186
H         5.34342320027324    0.86176650804891   19.29920216579135
H         6.39336576954395    0.12236887236327   18.07144191170486
H         5.56289160385639    1.65983025877497   17.71991067740025
H         8.62572847323023    0.60142793249227   17.47932753894015
H         9.65725814375473    1.95402499646639   18.03316531498351
H         8.33772817577820    2.26731002173422   16.89262649627244
H         8.41940768383258   -0.08479049012977   19.88144501171217
H         7.28317849319194    0.57989901557348   21.06604005858683
H         9.93174094258385    1.96540917291951   20.50768053292869
H         9.85566322977076    0.60035302006951   21.63481982113501
H         7.90292378669559    1.96439310644690   22.76930297383248
H         9.58007644194696    2.45616698929408   23.06972994462755

