64
CSD_code = DUKYOX | q = 0 | S = 0 | Stoichiometry = C28H30Cl2OP2W | MND = 7
W         2.34799327000096    3.67121669925711    8.00890613234563
P         0.07719888469417    3.72883499899254    9.00176521990407
P         4.49910833697786    2.44189768989904    7.99030061830515
Cl        1.61431408039914    1.39805441176760    7.69110018654654
Cl        2.74092495115473    3.16732481778386   10.34894692768102
O         2.84586079425923    5.25921336379678    8.16668930261835
C        -0.36097926748108    2.40613795444309   10.20300790728938
C         4.63781697520423    0.94757307518278    9.05412666521770
C         1.28026729897990    4.11591836522207    6.15095088213406
C         2.63580537018689    3.72331891160449    5.84017786533728
C        -1.85268627862853    4.90475656197502    7.37107868028008
C        -2.90266055931569    4.89693653485449    6.47254521416413
C        -3.46102977576994    3.69495627088739    6.06730829615786
C        -2.96058913914242    2.50005073060928    6.55681217930128
C        -1.91332168408142    2.50289109969327    7.46100072797401
C        -1.36387110814366    3.70778355929785    7.88730933133970
C        -1.48352301297672    5.41635073311943   10.60753893715410
C        -1.69262769368258    6.52764601186643   11.40175551293058
C        -0.66738377536039    7.43824955341075   11.60716520351924
C         0.56554513978968    7.24173868327085   11.00856022973337
C         0.78002033573754    6.13142796417490   10.20900493375081
C        -0.24229397754693    5.21193078035663   10.01032858399969
C         5.68339761057563    4.70435469189044    9.08815496758826
C         6.73774450790958    5.44584161989164    9.59454174296802
C         8.01468770651159    4.91113429766627    9.61703994076242
C         8.24227840910065    3.63442832578902    9.12637138594709
C         7.19360666335766    2.88871889046137    8.62284199477957
C         5.90696019081951    3.42093590206503    8.60562450552658
C         4.78266192600987    0.56527114403519    5.92904892431347
C         5.21670157541748    0.14200021797041    4.68521900629423
C         5.99878502420366    0.97290778410128    3.90080529682597
C         6.33635487907483    2.23787028119840    4.35556943267001
C         5.90084080149730    2.66719016129747    5.59480362690830
C         5.13739305095673    1.82550157444412    6.39915108276580
H         0.18798157470765    2.58327347398128   11.12765004314561
H        -0.06840764278006    1.43411907749709    9.80496357352195
H        -1.43343825390069    2.42365244896197   10.39474205780822
H         4.67691521326800    1.26708255102303   10.09537801774112
H         5.54151801902430    0.39548476892847    8.79745711135268
H         3.76118418454888    0.31401981918224    8.91680339603427
H         0.49498689051157    3.43834702650300    5.80681447036776
H         1.02367561806355    5.16336134979330    5.97585097941162
H         3.29371536989657    4.50637479066252    5.45600133975983
H         2.74865791003923    2.78621187800536    5.28951599153517
H        -1.40418871256717    5.83877746788551    7.68204633458279
H        -3.28419066476981    5.82906952389571    6.08249592004234
H        -4.28025649381113    3.69003491065876    5.36367401820182
H        -3.38505024533401    1.56202177756043    6.23035925053445
H        -1.51139539520923    1.56858436092449    7.82567276333067
H        -2.28632648202880    4.71176753844657   10.43829672616093
H        -2.65660920335880    6.68513819562437   11.86327028006041
H        -0.83402197588381    8.30334622353033   12.23205817017199
H         1.36164213185935    7.95449808952014   11.16361246248366
H         1.73948632267506    5.97461651352271    9.72184683668948
H         4.67893112887785    5.11939656162739    9.05198564211819
H         6.56250164566199    6.44281908220984    9.97022033009297
H         8.83689913759847    5.48971589485804   10.01189940106715
H         9.23995445031398    3.22028317720019    9.13763889838017
H         7.37272695721859    1.89716035980371    8.23007962936404
H         4.15581898848775   -0.07737700560532    6.53022692126256
H         4.94067400403066   -0.83842528715642    4.32556835634987
H         6.33834884652144    0.63895829686370    2.93153097924602
H         6.93604018092259    2.89166597120284    3.73954132400278
H         6.15022498482437    3.65785750069315    5.95104733023041

