70
CSD_code = DULMEC | q = 0 | S = 0 | Stoichiometry = C17H47NOsSi4 | MND = 5
Os        7.28928791349412    0.40203763292270   13.86778479118812
N         7.60301786542730    1.81892909134738   12.96278394391772
C         7.35376691483495    3.00213501385201   12.23652316096486
C         9.21760378924342   -0.36288602493975   14.28046801438215
Si       10.68022817082673    0.64633793332069   13.59363459472641
C        10.62439278980251    0.71533704886970   11.68511234321929
C        10.70322937648270    2.40664417383678   14.33597633963349
C        12.29784745107349   -0.24350135566164   14.10911732097910
C         5.47975526050823   -0.49446882660430   14.50171013125653
Si        5.54697781563802   -2.11188660747998   15.51782613504106
C         7.29399885129465   -2.81239248848405   15.88217375594517
C         4.69291962112884   -1.83251545425290   17.20908461127465
C         4.57919552042164   -3.48006561448590   14.59079127722740
C         7.14988067904839   -1.09317689950771   12.33732892371713
Si        6.09845787225590   -0.61604249272739   10.82771383923688
C         5.31627841957064   -2.18691596637407   10.06096983814374
C         7.21276351470123    0.18944487369158    9.49490218342968
C         4.65362509768994    0.59422657445189   11.19065187330927
C         7.28054711663315    1.13740282128522   15.88220101143161
Si        6.26429241267814    2.71845014616404   16.16752787424050
C         4.82129608545469    2.98806833700202   14.93084869628230
C         7.41800027169316    4.24323272331752   16.06040109542143
C         5.49125273740772    2.69086476133244   17.91904906635560
H         6.66822344511049    2.81832228597828   11.39823965399753
H         8.29403147094210    3.39570499814254   11.83077886337280
H         6.91042643804468    3.77255240967666   12.88150770616637
H         9.32639157507575   -0.44174879186206   15.36548271126476
H         9.27410241954588   -1.37804297851193   13.87862176752702
H         9.63017439292627    0.98221853830218   11.34299785772343
H        11.32564733478850    1.44490541772360   11.29162130112944
H        10.87591385483487   -0.24543373298989   11.24680964613746
H        10.98364581981214    2.39180071254109   15.38461960330122
H        11.41017060795468    3.04849016231480   13.81929063234074
H         9.72001620509583    2.86003831765816   14.26522664140003
H        12.34334355854053   -1.25167477458575   13.70943361039450
H        13.16786854430929    0.29159297488892   13.74276660582325
H        12.38975701560947   -0.31495675539405   15.18832686243173
H         4.92246584010356    0.23423952914915   15.09637955590030
H         4.86765939943050   -0.69730553532334   13.61893672616921
H         7.22081171670107   -3.72971905535609   16.46035077363773
H         7.83374310448733   -3.04716364927320   14.96943312317216
H         7.89847807493368   -2.11570455377662   16.45556928517853
H         5.19924383803713   -1.07082023712846   17.79438580778141
H         3.66291463889941   -1.51384280871701   17.08173381832673
H         4.68207339999622   -2.74396740881330   17.79872476957037
H         3.54859503477527   -3.18509798553592   14.41817376985370
H         5.02147957506973   -3.69915830240900   13.62347036990469
H         4.56348277979605   -4.40442297844908   15.15996540467983
H         8.15861300389217   -1.30901269865290   11.97175792591836
H         6.76873313564657   -2.02660734114365   12.75667677506924
H         4.65701819711449   -2.68530081329654   10.76536653257277
H         4.73078402950153   -1.94606179511082    9.17938498258091
H         6.07674069600586   -2.90154203660077    9.76304335249573
H         7.99771604595122   -0.49108136191246    9.18062773787104
H         6.64025318679164    0.45623943642207    8.61150695043853
H         7.69252808173429    1.09094136587803    9.86213881968497
H         4.90846379256828    1.28636648201741   11.98989061621939
H         4.39622009266407    1.17850889318318   10.31139130999676
H         3.75754149271814    0.06277031464700   11.49619360064895
H         6.93166417561789    0.35933079870749   16.56442147669733
H         8.31284852194161    1.35913799458100   16.17017801331290
H         4.61173432096526    4.04457564227868   14.78855391490704
H         5.05284755847651    2.55855038337589   13.95881003193148
H         3.90488726864796    2.52283257692288   15.28091192198960
H         8.18710091524237    4.20366331738036   16.82511580322101
H         7.91987346231356    4.30150631082597   15.09990463229896
H         6.86586356912349    5.16758564127673   16.20193913131319
H         6.25398121214690    2.60045070122368   18.68594921516578
H         4.93345107851703    3.60030716894299   18.11859094474335
H         4.80796053029070    1.85527381992700   18.03731862240707

