87
CSD_code = DULPIK | q = 0 | S = 0 | Stoichiometry = C30H44N6NiO4S2 | MND = 6
Ni        6.24094106774852    3.50375654305974    0.00328113421537
O         5.02667935646314    4.72106035465139    0.66897372641334
O         3.22338724102200    5.84622278378802    2.13869296917696
S         7.45456098756280    6.38923930152460    3.21267665093722
N         6.86729000342433    4.85485728143533   -1.35657757765719
N         9.66343911783294    4.02649885614631   -0.75187385665785
H         9.34736735204048    3.07416321274029   -0.94420482916794
H         8.75329344618611    4.33172173671325    0.50575408075872
N         8.03598292566308    4.51220772458415    1.28335820561897
C         5.58174226088885    6.73098667319333   -0.49220569974622
C         4.87840367622270    5.97470694366743    0.47809616045975
C         3.91026152618690    6.67036883387394    1.28112406642101
C         3.72719495072890    8.02100652363816    1.15358434409293
H         3.01561749271457    8.54391672189190    1.77387191612076
C         4.46207448008803    8.75175893887600    0.20768298653571
H         4.30231300451927    9.81586225697323    0.12983165422847
C         5.35604818177769    8.11794127832871   -0.60524961498251
H         5.91357900604905    8.67564984949220   -1.34412408953909
C         6.50156175569878    6.09107855847502   -1.36233771041778
H         6.92815279362079    6.74946796149124   -2.12703557009143
C         7.86010006766141    4.49826540417108   -2.35477482729385
H         7.66160446260048    5.03579088348928   -3.29128146126670
H         7.80573255540362    3.42453540272029   -2.54027150738128
C         9.27855844841446    4.85181641962760   -1.88464374819877
H         9.96911621873789    4.71191734981071   -2.73247218301034
H         9.31248561313370    5.90714289763588   -1.58965145590017
C        11.08225353002203    4.02479420599679   -0.41168347756283
H        11.69596321910657    3.92346553577277   -1.32621607539851
C        11.35428585700583    2.83198015591379    0.50017372128866
H        10.75746280512144    2.91221455432528    1.40556334922720
H        12.40500320590970    2.79493105865465    0.77533913639783
H        11.09392328975706    1.90232027047740   -0.00091735790654
C        11.46457435540857    5.33186350117440    0.28286185865347
H        11.30841394912830    6.18367184559817   -0.37380260127630
H        12.51360663113671    5.30922034812781    0.56568955347832
H        10.86510117163419    5.46910624117017    1.17943323309672
C         2.37829453751447    6.43319807643133    3.10383161664700
H         1.54410439852972    6.95459072410920    2.61133342432711
H         2.94185968475246    7.16179427932347    3.70180527538469
C         1.84739955508273    5.32025525053561    3.99405444141513
H         1.26698339162188    4.61504960704697    3.40459913864744
H         1.21319148306129    5.73885652219530    4.77015799725045
H         2.67639755798957    4.79112572630839    4.45660407017404
C         7.83525467552418    5.35938941084025    2.10087239387897
O         7.45618298633770    2.28660315329079   -0.66119690905282
O         9.25647633590410    1.16055612156599   -2.13426228873150
S         5.02877029514217    0.63696000503874   -3.22472883546905
N         5.61119078809664    2.15090557746768    1.35986197669611
N         2.81841968726411    2.98226993269394    0.75366702051640
H         3.13573147836536    3.93400606559777    0.94695008796703
H         3.72911844497589    2.67714321304010   -0.50340973202570
N         4.44678738199763    2.49939232749675   -1.28131311164058
C         6.89126744567292    0.27367169795251    0.48980449383180
C         7.59898962527809    1.03148412747754   -0.47614056081751
C         8.56511690964785    0.33544280990911   -1.28124245513163
C         8.74199193360202   -1.01659082775453   -1.15996190304703
H         9.45169225121018   -1.53979621540090   -1.78214660037197
C         8.00280326540874   -1.74862106263546   -0.21840551353633
H         8.15763579599567   -2.81382035457356   -0.14563837561081
C         7.11080067723297   -1.11474918323640    0.59664147695997
H         6.54986865170656   -1.67349769383887    1.33215273632734
C         5.97316089141145    0.91354903739054    1.36174678497007
H         5.54419310448600    0.25397497988771    2.12408664612843
C         4.61871941898876    2.50705654963590    2.35859030220082
H         4.81611692358849    1.96746087610048    3.29413450838345
H         4.67452023696169    3.58036190585919    2.54607016125376
C         3.20002534303938    2.15626885736351    1.88705086505737
H         2.50879706276283    2.29772999500710    2.73406036927082
H         3.16427960041657    1.10099974987698    1.59211778368131
C         1.40028704869162    2.98671941894174    0.41080287706805
H         0.78500037499986    3.09380795592198    1.32361368040425
C         1.13388167678677    4.17655819152918   -0.50663565535811
H         1.73192930083585    4.09046325986671   -1.41068544916727
H         0.08376272493577    4.21602566802635   -0.78372526336141
H         1.39658269042174    5.10749455665282   -0.00914014503451
C         1.01546274053625    1.67795047999399   -0.27913007787681
H         1.16419497102035    0.82871529744215    0.38259067463161
H        -0.03196732381792    1.70405036985599   -0.56752742990134
H         1.61892628826858    1.53348020717143   -1.17189775846268
C        10.10073894053192    0.57431549804893   -3.10059158635172
H        10.93099486644625    0.04586948513619   -2.60900687771309
H         9.53470348962876   -0.14806902399701   -3.70375177601841
C        10.63966731461328    1.68916190531774   -3.98355882199149
H        11.22279735977928    2.38782061566401   -3.38901132703429
H        11.27315199561101    1.27129933748819   -4.76065477262491
H         9.81458761066459    2.22541974607152   -4.44490356711067
C         4.64758010385565    1.65838737965391   -2.10519911329942

