61
CSD_code = DULPUV | q = 0 | S = 0 | Stoichiometry = C24H30N2S4W | MND = 7
W        -0.56846509205201    0.69163330286983    3.45656890768280
S         1.09190975608609    1.79897332159223    2.53229324032602
S        -0.82496118762539   -1.37107491457979    2.07424733621163
S         1.04959121753126   -1.11976149949830    4.25797999884752
S        -2.01182931314864   -0.30201042799957    5.48026111896367
N         1.04225649053543   -3.20006852429530    2.59655770347656
N        -0.62222266252898    1.74809757448925    6.49110512501208
C         0.49397578207340   -2.03809233061172    2.93344256279926
C         0.55887998680642   -3.94489374975587    1.45120347842910
C         1.23726272340859   -3.48459383688054    0.16430027793093
C         2.15980495398157   -3.74141937220893    3.34299146351744
C         1.68198926358914   -4.59736529804053    4.51192684650650
C        -0.96239606073464    1.00746013699394    5.46791681061296
C        -1.17328431354874    1.57723164375637    7.82343661924871
C        -2.38538827273693    2.47815296784458    8.03363604645455
C         0.40039789984533    2.76259210363736    6.29332351994409
C         1.79438110053533    2.16705846848927    6.46982438294883
C        -2.25205582913129    1.41100706951756    2.33343938964074
C        -2.12853725038616    2.19186359557369    3.34588133267615
C        -2.92633979553710    1.12901101685601    1.09877052425288
C        -4.32010124340321    1.08667812361644    1.03355179166328
C        -4.94574071781457    0.79150015735263   -0.16218375897388
C        -4.19696330267257    0.54551864588100   -1.30196390921158
C        -2.81266551671901    0.59466361756522   -1.24551155494052
C        -2.17691669895487    0.87714798257007   -0.05322560674173
C        -2.58771613486994    3.34296265481522    4.07257569905706
C        -1.80344105977740    4.49842401887242    4.12505000299746
C        -2.23118054292418    5.59491663248736    4.84686007759990
C        -3.43436295645189    5.55272687573000    5.53466442644284
C        -4.21672028521645    4.41021723903900    5.48756446748474
C        -3.80258781340675    3.31044122391367    4.76066192367583
H         0.86343804329189   -4.06091660625904   -0.67694516953216
H         1.02383455160505   -2.43350554310057   -0.01191772437410
H         2.31518157193888   -3.61504704471255    0.22839002843365
H         0.75542356961437   -5.00370357165960    1.63166748630268
H        -0.52116596705811   -3.79661147512337    1.37059124733387
H         2.76857436798147   -4.33360491392517    2.65664427045406
H         2.75995425121893   -2.90884933601419    3.71936839993020
H         2.53651368302228   -4.99665442760718    5.05028084290599
H         1.09126260433625   -3.99275772783207    5.19503125382967
H         1.07064913371204   -5.42532932261129    4.15992783524261
H        -1.46909778972429    0.53003158827030    7.93141268882531
H        -0.39316485883927    1.80411235967320    8.55391030138064
H        -2.77266501033327    2.34912375886898    9.04043714722505
H        -2.12230540654137    3.52386380185682    7.88857613716867
H        -3.16551521757939    2.22044530820567    7.32194095067242
H         0.30616019187155    3.14843692565264    5.27164240508140
H         0.22688595237255    3.57528998961112    7.00177704085622
H         2.54782066179967    2.93410516228299    6.31778249076533
H         1.91786591106544    1.74317173985154    7.46393911800758
H         1.94731645149744    1.38040307968135    5.73076571156452
H        -4.89840050370629    1.27880339117485    1.92569766163830
H        -6.02467358744745    0.75455495696089   -0.20677185525912
H        -4.69217621410899    0.31496500609837   -2.23375992277036
H        -2.22867203844969    0.40529856717739   -2.13444342185554
H        -1.09541307401079    0.91810341903744    0.00545961249767
H        -0.86903541332379    4.52060523502809    3.57942175298034
H        -1.62296255766462    6.48722474936495    4.87704091062569
H        -3.76288181144720    6.40949771837141    6.10407576735675
H        -5.15555328667020    4.37664014737434    6.02115399226911
H        -4.40627133287198    2.41440464468169    4.72505279566900

