51
CSD_code = DULPOQ | q = 0 | S = 0 | Stoichiometry = C18H24N6NiS2 | MND = 6
Ni        6.92693712345781    4.35391792754937    6.81535521634288
S        10.04547434255630    6.87849793024393    5.03472921851048
N         8.76868756631284    3.77361944002565    7.58864368615717
H         9.34545625391564    4.58416207644551    7.80781565522516
H         8.57530059641651    3.28439535213442    8.46252679516726
N         7.40534902833770    2.64274705679108    5.42275808609032
N         7.74527824043055    5.49686676085452    5.67725373907684
C         9.47136544503813    2.87520089264924    6.67148239140835
H        10.27700655982010    2.32365363339629    7.17272973611172
H         9.90908075664401    3.47466528135910    5.86843552265495
C         8.46282807413735    1.88494053504440    6.08234715641097
H         8.96967781141000    1.19991352166264    5.38885581136393
H         8.02638018333353    1.30503259413907    6.89755376659331
C         6.25828265955712    1.97065947750284    4.95356700272512
C         5.72086211456766    0.84759752338270    5.57711909083065
H         6.20354576779708    0.40823209184229    6.43465968965603
C         4.53824821490353    0.29501788926887    5.12006953142753
H         4.13096353364003   -0.56795621390409    5.62466526253284
C         3.87391317098416    0.83879896185343    4.03497047198414
H         2.95022513734822    0.40336105492925    3.68635298641720
C         4.40814135765850    1.94787902736133    3.39965295311505
H         3.90526424992627    2.37909796355537    2.54609217360542
C         5.58869701536230    2.50456528642393    3.85021146661250
H         6.00250132578507    3.37233592311455    3.35307643184233
C         8.74840233958407    6.07714631663778    5.45893755824053
H         7.80972455529547    3.19211791291707    4.66274454035482
S         3.79291914078436    1.85737809716568    8.60009528378944
N         5.08633391875143    4.93617896106035    6.03988790323194
H         4.50725305916585    4.12663693417146    5.82306688360218
H         5.28198584094696    5.42171945500012    5.16445426565418
N         6.44681804214942    6.06245373792663    8.20974423956788
N         6.10878620691103    3.21040573578898    7.95294756028752
C         4.38530007542145    5.84011855187447    6.95299682143256
H         3.58455897532059    6.39514570308071    6.44780744402972
H         3.94127326695640    5.24445143882550    7.75542346928361
C         5.39690330237627    6.82582061946492    7.54457523376886
H         4.89103380045271    7.51475771573256    8.23490284139555
H         5.84032425778542    7.40193314752282    6.73037963654665
C         7.59310467134663    6.72837340809864    8.68925218966624
C         8.13805818121946    7.85285894361830    8.07494890749335
H         7.66194691765639    8.29840104108960    7.21693258456426
C         9.31963695846895    8.39900137379798    8.54242329566604
H         9.73299262582161    9.26325192005682    8.04500936338073
C         9.97516590678791    7.84737682668001    9.62892645868768
H        10.89798922276582    8.27795438233710    9.98579702182755
C         9.43316836026438    6.73687189590459   10.25518567948474
H         9.92902203651096    6.29968902515879   11.10982080285413
C         8.25375011425204    6.18648980953907    9.79416398169194
H         7.83375684998538    5.31756079087896   10.28400750893989
C         5.09872419954653    2.64295915759215    8.17383807865804
H         6.03480064412765    5.51274511045228    8.96540660403873

