61
CSD_code = DULRAD | q = 0 | S = 0 | Stoichiometry = C19H29O11PRu | MND = 9
Ru        1.41355295308467    7.77753291986868    2.66709936718633
P         1.81297049807668    8.57134242445308    0.50227505782323
O         2.62916456528519    7.72680208758152   -0.57953417422942
O         0.40249225902813    8.66411226067092   -0.26493814034540
O         2.53650372016448    9.98784860385154    0.18008978987052
O         1.58925993077535   10.58180157111559    5.19755320403019
O         3.04110374733845   11.45350883977590    3.72557180820403
O         2.66637683520352    4.22452716162532    2.72830209048899
O         4.06202395364605    5.03820584222498    1.16755396179598
O         0.86710942405717    4.79324911009595    0.15157973865119
O        -0.09177325275818    4.01746953878836    2.02862836001152
O        -0.37314615260229   11.31069771264397    2.78715472331913
O        -1.19878809167555   10.25323290092260    4.58587702432867
C         4.04779648211330    7.64969766770562   -0.62777626999917
C         0.34379930832824    8.98865012506059   -1.65219418852357
C         2.14330082591121   11.22116586775210    0.77280373123756
C         2.39513201512241   10.42260775078427    4.30605934576191
C         2.81546482844801    9.12281310966812    3.76466166253655
C         2.44547122070610    7.99159066235172    4.55879628366603
C         2.66653477999923    6.69572127624332    4.06452285384024
C         3.26024977372006    6.53272955498027    2.77626413712827
C         3.26782415359621    5.16111596904265    2.24881782691314
C         2.60027430978619   12.74788797749476    4.11070399807567
C         4.00172471079231    3.79330950819317    0.48363620994492
C         0.32408195254320    4.99619222977425    1.21393344089962
C        -0.03417150261058    6.34007447258001    1.73066424807562
C        -0.30480715401330    6.50584851523177    3.10782720613176
C        -0.53987977284235    7.80062581522414    3.63076915618835
C        -0.50817526438180    8.93034886575833    2.77568144993234
C        -0.65548805186873   10.28113050360774    3.36632921203875
C         0.22762322362850    2.68536473960294    1.65521489514047
C        -1.33926760231523   11.49535560131618    5.26038006558745
H         4.30361313477910    7.44355870252947   -1.66714786709962
H         4.49996582598083    8.59348174419739   -0.32283257767364
H         4.40118469880150    6.83501326604333    0.00262623193525
H        -0.63830474793845    9.42565018665167   -1.83045180949243
H         0.46552966781205    8.08347936362794   -2.24670956660473
H         1.12268487582836    9.70415928441211   -1.91858952651643
H         1.26176425145292   11.10780429926876    1.40432796021900
H         1.91819860851485   11.92025142350444   -0.03373839684295
H         2.97434015170476   11.59965373063930    1.36647913868627
H         3.78276339872403    9.16344724424484    3.25920630231698
H         1.96218979689655    8.15653320777714    5.51910951321485
H         2.35350051015119    5.81569492896431    4.62167168772882
H         4.13748518186939    7.11608956058287    2.49091126974245
H         1.57743933867497   12.90578105044108    3.76164649928256
H         2.63099734379671   12.85195543811755    5.19743113629293
H         3.27811175704039   13.45527326545606    3.64004092924918
H         4.11788585734779    2.96758063357848    1.18862850773189
H         4.81627690224767    3.80070405053445   -0.23610619640818
H         3.03930937907528    3.70962540475960   -0.02497971200612
H        -0.57359550416516    6.91975861526984    0.98183454725875
H        -0.26474116818366    5.64757127560004    3.77330312106475
H        -0.69144343449373    7.93881377499203    4.69793963309554
H        -0.93337335268366    8.88467478897518    1.77193076101933
H         1.24679948219542    2.46124670891062    1.97241290830581
H         0.14394412347627    2.56606431009844    0.57303935238371
H        -0.48218014601607    2.04250775849458    2.17075892650626
H        -0.38491554057065   11.76099271414050    5.71678181288809
H        -1.64114761072300   12.27487390876396    4.55782874834009
H        -2.09992140790565   11.34609817340849    6.02313858966195

