49
CSD_code = DULRIN | q = 0 | S = 0 | Stoichiometry = C22H22Cl2Si2Zr | MND = 12
Zr       -1.96858378694035    5.63177263416864    6.23814698306666
Cl       -3.80547287558051    6.55499596596370    5.14632681043557
Cl       -3.15870203896098    5.06998280972874    8.15926041392368
Si        0.28258256713224    6.12312598626555    4.03371861545092
Si        0.91961423716537    4.53472065323494    7.03804141661163
C        -0.03808082735671    6.97984334409532    5.68735186380451
C         0.23170347957636    6.30891582973749    6.93015302910541
C        -0.61161289023349    6.84284073928458    7.93023825994242
H        -0.58790034361466    6.59876202878084    8.98571182094105
C        -1.41144336219753    7.87051644539662    7.34876720993806
C        -2.42061946284326    8.69787934532883    7.87612370361210
H        -2.70092328586791    8.61277729025088    8.91843473749930
C        -3.02409092244576    9.61136535615222    7.04791922818105
H        -3.80727992982452   10.24946838378337    7.42939395319510
C        -2.62716688212575    9.75158544164684    5.70685065394726
H        -3.10941116443075   10.50240735983666    5.09883650871102
C        -1.64804083270982    8.96044105702723    5.15796645164654
H        -1.33923398287868    9.10229204226094    4.13264124426743
C        -1.03974508810838    7.97277033537387    5.95444572652122
C        -1.94396164317733    4.25583583979324    4.17062681541217
H        -2.40191121182837    4.54952778230835    3.23362643676482
C        -0.61987017464825    4.53474001389753    4.57748681724807
C        -0.36646864353081    3.86663743029220    5.82525280650918
C        -1.55439569781922    3.13284350422400    6.15834777781339
C        -1.87811351170855    2.25725554054508    7.21125327854907
H        -1.13558994434971    1.99112721933129    7.94920232729954
C        -3.14603065053361    1.73375830204170    7.27874970943599
H        -3.40758264023266    1.07225242464792    8.09126927803333
C        -4.12204489544301    2.03602292760035    6.31342151763501
H        -5.10868883505539    1.60964065452804    6.41790051293312
C        -3.83421527841390    2.84149625111085    5.23962912632591
H        -4.57377663672984    3.04710417585246    4.47605919099466
C        -2.54412119657991    3.39494514430874    5.13632271589250
C        -0.76888094656852    6.85770916850922    2.61943262325396
H        -0.36647128669917    7.80669550139166    2.28164517307326
H        -1.80001522231248    7.01459322764009    2.93215643369281
H        -0.77337901936734    6.19291408994612    1.76087649583956
C         2.10997192482617    5.98092464599561    3.50495995674716
H         2.32198225561412    5.01080496286324    3.06940949390322
H         2.78842705838092    6.13609360451873    4.33482239665385
H         2.33297943009607    6.73101897011514    2.75447198209402
C         0.59795330627377    3.96052292509587    8.83020037753361
H         0.89740388314694    2.92775304664283    8.97283067104938
H        -0.45488209761455    4.05111742667403    9.09295897878237
H         1.17428740598632    4.55648430776551    9.53149958491398
C         2.74520242251574    4.25474387296505    6.56294446876307
H         2.86836011800089    4.06555011580478    5.50377097724087
H         3.13521141214534    3.39569810608062    7.09758066515957
H         3.35702770787244    5.10992576919178    6.82836277965098

