32
CSD_code = DULRUX | q = 0 | S = 0 | Stoichiometry = C11H17ClO2Pd | MND = 5
Pd       -0.11570320450156    0.32945663833036    2.94158269203468
Cl       -0.37719087267926   -1.92188215218500    7.74208018913303
O         0.86823590501196    1.13991830279088    4.60954316297359
O         0.82658909608715    1.76936853099318    1.75154785992663
C         2.22442329917121    2.55594612576278    5.92925716631529
C         1.64503664345462    2.13599231425297    4.59212928114922
C         2.02416342601004    2.88828865295736    3.47968067687766
C         1.60089184817446    2.67321813693886    2.16394041747508
C         2.13180280747155    3.63156152624367    1.11511964766036
C        -1.32833186924866   -0.59083503851459    1.51661360943710
C        -0.96732455055542   -1.50290995957947    2.53438881628347
C        -1.31630818524042   -1.11775044311033    3.85514099679822
C        -0.86816469377196   -1.90490099308701    5.06381716987769
C        -0.91540625482046   -1.01751052298498    6.30064695305475
C         0.00658042429356   -2.62010503682538    2.26397419176061
H         1.93343586892778    3.57915716890180    6.15646596100364
H         3.31065189748255    2.50980610597760    5.89439252354169
H         1.86131687440912    1.89545520024722    6.71262183907033
H         2.69709614923687    3.71460473151197    3.65085377739573
H         3.21858376225814    3.59787523648868    1.09511966956707
H         1.82559532487927    4.64801766720586    1.35143252746089
H         1.74231500389005    3.35447121961331    0.13914689385365
H        -2.27998398938031   -0.06034315721320    1.58840131006532
H        -0.99695023704235   -0.78672270375477    0.50159782781963
H        -2.28389336390136   -0.62023185224389    3.99147265062775
H         0.15418493107126   -2.26650295648274    4.93125863635043
H        -1.52228184126865   -2.77271092707847    5.21037460796979
H        -0.24429583579034   -0.16555149519724    6.17822158540416
H        -1.92853868140168   -0.67183245013197    6.50752145647047
H         0.99672083146331   -2.36407068344973    2.66265221216176
H        -0.32675858831636   -3.53978022739904    2.74209253455382
H         0.10120807461145   -2.79479695897874    1.19451115593354

