46
CSD_code = DULRIM | q = 0 | S = 0 | Stoichiometry = C20H16N4O4SZn | MND = 6
Zn       -1.69410445786053    2.83853618283410    2.75179625002857
S        -1.53787299912116    5.25896552066785    2.93058500884185
N        -0.69219791565794    1.42770179668026    3.96729267596596
O        -1.93754853720761    4.41434445086408    1.72696982105026
O        -0.45816466690255    6.15140919379389    2.59058165518500
C        -0.41651056984153    0.10349741900255    5.92507721204659
H        -0.85602780362506   -0.55372507356703    6.65842633252402
C         1.42974553619128    1.32656112356021    5.03954013243230
H         2.46775592236018    1.61757964790750    5.06258174658345
C         0.91933348316084    0.46906389082300    5.99731365419929
H         1.55155195337893    0.09349693236220    6.78834291589316
C        -1.17809896810542    0.60764185364266    4.88340315707473
H        -2.22138747923149    0.34657734086551    4.77446528100149
C         0.58631812616222    1.80662581072199    4.03832956662008
N         0.28531950256052    2.75654015437795    1.89359873633140
C         1.01677889135064    2.76746186023110    3.01331369771485
C         2.05416639586144    3.67092011664699    3.21394242916863
H         2.60214023650142    3.68296246874567    4.14268688010336
C         0.55863230286428    3.64147550167675    0.94821368248961
H        -0.05799110256863    3.58799359658076    0.06266231351139
C         1.55282397589110    4.59886310658984    1.07492693481520
H         1.70620597525947    5.33020443471167    0.29902097703591
C         2.30331808311210    4.61987701339877    2.23705210694704
H         3.05886084779000    5.37511063404841    2.39085721424539
N        -2.70617561721379    1.56645393081835    1.44237707397895
O        -1.06819774292875    4.20249304258528    3.92301834944176
O        -2.72586453719349    5.90596882116688    3.46894535113414
C        -2.92463822242590    0.16687329066912   -0.46726071091348
H        -2.46234995082119   -0.50511954374610   -1.17242642840831
C        -4.81289515567416    1.36721507725236    0.36156090897843
H        -5.85925369453600    1.62153484507440    0.31556269818812
C        -4.27087124969997    0.49099527042897   -0.55953697553466
H        -4.88712119501558    0.06751011677193   -1.33882466429942
C        -2.18682149859344    0.72988946694886    0.56016721739050
H        -1.13718072306172    0.50855594790729    0.68965130578162
C        -3.99375567484471    1.91000553478502    1.35490722743612
N        -3.65620759247710    3.06902580681939    3.40076053489552
C        -4.46469957143996    2.89088481847019    2.34102688661000
C        -5.62979974877554    3.62291815387395    2.17776850362416
H        -6.25160822052558    3.49486398014905    1.30608404505001
C        -3.94995592748003    4.01391813320776    4.28099673120346
H        -3.26236652527578    4.12351556179275    5.10453898951554
C        -5.12767023069335    4.76067240193234    4.21293189643646
H        -5.33002941886260    5.50480578374699    4.96458291258214
C        -5.96683583076048    4.57241021001027    3.13893222792334
H        -6.86734840403582    5.15802437215535    3.02685553718299

