99
CSD_code = DULTIO | q = 1 | S = 0 | Stoichiometry = C47H42CuN4O3P2(1+) | MND = 5
Cu        2.20425588798678    3.33412011552317    9.64580121901529
N         2.06518441111213   -1.79122260455583    8.62397605803156
C         2.68140447291876   -2.99778984170759    8.10483569763935
C         0.69970521774805   -1.79722528019094    8.87695847852606
O         0.02096905437766   -2.77349535519510    8.69346430909025
N         0.14523750733359   -0.61261295182790    9.34919197577793
C        -1.28932797990879   -0.64537793514480    9.58736253456063
C         0.81452828604947    0.57200653782603    9.52127348171551
O         0.25410886539810    1.62275500513077    9.80737845568640
C         2.24837213491307    0.48379688488249    9.30763807274159
N         2.99850941057915    1.55654666517206    9.54712517051188
C         4.32466799769755    1.50647524492857    9.29542441726372
C         4.97687075718702    2.78311175550465    9.61111571417849
O         4.28182882848857    3.80080957242811    9.58531773513331
C         6.41411390555569    2.84136153085432   10.01668073807212
C         4.88120353031084    0.32942594608720    8.74674097020835
C         6.30358421321005    0.19563887946476    8.32946097277104
N         4.13340471479453   -0.74061276079717    8.53187407122356
C         2.83056003309044   -0.69271086175397    8.82052384069860
P         0.94356375601407    3.36995800124814    7.75066605660022
C         0.83463761755556    1.81123110012736    6.82568061419252
C        -0.32897300210261    1.05595034646243    6.72715628625580
C        -0.29735449021022   -0.18161702292483    6.10706321967744
C         0.89223476279740   -0.68229588328974    5.60290171906663
C         2.05845569947056    0.06115610110290    5.70868883834732
C         2.03067902823793    1.29997400265721    6.32030660057105
C         1.60275965135222    4.52803193984820    6.50584682815668
C         2.16125414218097    5.69961692141274    7.00701418723069
C         2.63227495298601    6.67008286779701    6.14378830258528
C         2.55493841712185    6.46973398346937    4.77456364125460
C         2.00687651377986    5.30000653628163    4.27315214540426
C         1.52670711919015    4.32752425895499    5.13241779270455
C        -0.75249378302375    3.99720905336068    7.89498606557245
C        -1.60777399043148    4.06378738749761    6.79825508713985
C        -2.87603560355670    4.59090827344663    6.95505911967839
C        -3.28951045601132    5.06190247785458    8.19239893886005
C        -2.43079992411668    5.01460038788797    9.27845239531679
C        -1.16167070978766    4.48640721761821    9.12856874283773
P         1.95294833380195    4.80857806559893   11.32075876863410
C         1.88221123401134    6.53246376642438   10.76797086552508
C         3.02898574827992    7.06708447956258   10.17993767202181
C         3.00525982231596    8.34660672287627    9.65874045849677
C         1.83459988382489    9.08911443189725    9.69749761756275
C         0.68631712408701    8.54767231687348   10.25165669503069
C         0.70285673146723    7.26965079584374   10.78226191870709
C         0.61883558274950    4.64313909154101   12.54867045207200
C        -0.23133202495215    3.54475854841662   12.48509004406407
C        -1.22614832276733    3.39059196566228   13.43539683757336
C        -1.36802296452662    4.32364422354257   14.44893279449431
C        -0.51109889207665    5.41198037590949   14.51979897257551
C         0.48533032638089    5.57341567107976   13.57628421465695
C         3.39732874037581    4.73595918260639   12.43011071853885
C         3.85629399587953    3.45795821949756   12.73920940065861
C         4.93240320359497    3.29034087853176   13.58896213316070
C         5.55752122179741    4.40065213033006   14.13550381004686
C         5.09968536144181    5.67273786055692   13.83478293363203
C         4.02024764210583    5.84636894674690   12.98553208603677
H         3.11794717074520   -2.79263812854599    7.12875935623956
H         1.91059963914639   -3.76027505920525    8.02249930332789
H         3.46808486435669   -3.32750128550650    8.78140114549692
H        -1.61287975658729    0.36654963969481    9.81745326942606
H        -1.50680406747983   -1.31272157394584   10.42079411540075
H        -1.79907874275215   -1.02038077885899    8.70170924543010
H         7.05278655640199    2.86613479596220    9.13486147417843
H         6.69153173847809    1.98454957318123   10.62382541481771
H         6.57956247073996    3.75949970974988   10.57641649423278
H         6.95470534966642    0.13422804706007    9.19926046607960
H         6.61795128449834    1.04265498557083    7.72508250918013
H         6.41079140932585   -0.72145690156317    7.75676531456263
H        -1.25231620880707    1.44137159458410    7.13536850262256
H        -1.20337493144171   -0.76183382974966    6.01650332275293
H         0.90873998500280   -1.64997167317367    5.12552170262367
H         2.98697489466557   -0.32449352031848    5.31383631961090
H         2.93474055139690    1.89245219232542    6.40571607357981
H         2.22395595501266    5.83429816488717    8.08013236302190
H         3.05994846178903    7.57926443719815    6.53872742386752
H         2.92427716121769    7.22375745751525    4.09637342915909
H         1.95001500944819    5.14450963252676    3.20615731141879
H         1.10351913246457    3.41567618918381    4.73441600198542
H        -1.28001961287540    3.70768974178698    5.83144308734584
H        -3.54480548265453    4.63879989820434    6.10879995510437
H        -4.28185033139940    5.47102061631213    8.30607571659278
H        -2.75086807989314    5.38682100160110   10.24036968177129
H        -0.47300795706887    4.43805142342585    9.96277616894378
H         3.92836961669397    6.46687373558085   10.13524913603459
H         3.89836622174203    8.76584343435995    9.21945441706752
H         1.81653226687265   10.08842930428642    9.29008375295050
H        -0.22692597731357    9.12293806671411   10.27070025382968
H        -0.19435411171221    6.84781409541216   11.21269251877753
H        -0.11185984325950    2.82265321438349   11.68817374483994
H        -1.89108499428299    2.54142471008587   13.38502717889415
H        -2.14488468345261    4.20287830744972   15.18852542236492
H        -0.61960928886170    6.13438755728248   15.31467576147950
H         1.15839707166816    6.41779771854048   13.63000766299018
H         3.35593872431221    2.60104524995663   12.30065470347140
H         5.28572030396351    2.29791378065965   13.82820666262887
H         6.40082785282514    4.27317386768429   14.79695246033393
H         5.58487741334888    6.53598586340925   14.26497089034058
H         3.67158926595511    6.84229857330332   12.75207137739789

