108
CSD_code = DUMDEW | q = 0 | S = 0 | Stoichiometry = C51H47F5N2P2Ru | MND = 5
Ru        8.12780011882958    1.96646877043173    3.57262988626813
P         8.59564160734531    3.67749056977311    2.10152101443030
P         7.36534310641701    0.22844882580316    4.87415989304719
F         6.31848112690290    0.67245452410566    1.09015063138864
F         3.75028291330777    0.85265549097785    0.41814771636680
F         2.03161050903953    2.44335510916003    1.85490396555489
F         3.02283471284825    3.86246356282255    3.99685260305672
F         5.58537490968802    3.67638330038403    4.67694750837072
N        11.18024057904247    1.24575188572875    3.86475890944205
N        10.31867164032395    2.24833221287890    5.55743548359955
C        10.02700075754475    1.79983737545845    4.31014070132328
C        11.62368863261912    1.95571481194480    5.89988681265980
C        12.16954753625547    1.32463463416277    4.82775864146382
C         9.37988420257883    2.94133956354079    6.40424889378837
H         9.93451172019538    3.64639492065547    7.03194538483663
H         8.88030574655619    2.21830600549372    7.06581024233780
C         8.35333750841537    3.70021525649225    5.57513265233884
C        12.19998873047546    2.29517252615550    7.22664783290664
H        13.19787623422560    1.87594754824946    7.31681430739737
H        11.57997898136334    1.88864979651984    8.02596489042909
H        12.27118244989122    3.37549607850578    7.36101399431306
C        13.54895904142582    0.81230357562692    4.61607301199477
H        14.11860826141022    0.89317350566085    5.53754167891750
H        14.06449754988291    1.38736521878494    3.84559955660783
H        13.53643866551304   -0.23168259190913    4.30741180275818
C        11.36685972731766    0.68359219656525    2.54879745602323
H        12.39004029003601    0.88872981395484    2.22274181006019
H        10.66831500645789    1.19233891272473    1.87720812188111
C        11.08804408292152   -0.81581346958834    2.51432526856553
H        11.73588159055895   -1.35737640901477    3.20051121773962
H        11.25301101458044   -1.19335131575670    1.50947684978115
H        10.05083937977694   -0.99733940985203    2.78650596029331
C         6.10305921889844    2.13162934259179    2.94838147841582
C         5.53358221732645    1.46013475251737    1.86295402304405
C         4.20214975341499    1.54400219636562    1.48324356968620
C         3.32855363802332    2.34744330542255    2.20098502599481
C         3.83143110748669    3.05604937500189    3.27987123917404
C         5.17002443518137    2.93142454675633    3.61195997815684
C         7.08824372585594    4.62201488479119    1.67718104371124
C         6.52633583752926    5.47690146821388    2.62389029147238
H         7.03955850466093    5.65627996228387    3.56047456843791
C         5.30656651864396    6.08121308509972    2.38591310397822
H         4.87986234072335    6.74083357848298    3.12746770750991
C         4.62131657335650    5.82103495436424    1.21012467617639
H         3.66112970874574    6.28161284813965    1.03152311856383
C         5.16346035717333    4.95661217117739    0.27387196496408
H         4.62537756997757    4.74075645109596   -0.63759858992720
C         6.38890556194803    4.35746075854087    0.50414065655006
H         6.80193691235213    3.67299583086513   -0.22335723900963
C         9.77108526122046    5.02739373019156    2.55450672294995
C         9.50901913205414    6.38969132365774    2.44998607102462
H         8.55881244179247    6.73459217370654    2.06913677259872
C        10.46983478339885    7.31572637561530    2.81964673478446
H        10.25227330945476    8.37081250497733    2.73532919819257
C        11.70400070638625    6.89971161586166    3.28918958565011
H        12.44708078707416    7.62746991493927    3.58035414343687
C        11.98416830443900    5.54542306769783    3.37136269894421
H        12.95088816987654    5.21061479952935    3.72032149940061
C        11.02506957533404    4.62133935519835    3.00390643175384
H        11.24187391793117    3.56407292460567    3.05199328949831
C         9.23901550683571    3.35466273337535    0.41303518152489
C         9.81524110078357    4.36638132846485   -0.35044309500003
H         9.92339084065804    5.36143400607780    0.05740445583021
C        10.24980340126638    4.10382512337633   -1.63668896588705
H        10.69729481019624    4.89447482156013   -2.22184313999341
C        10.10822334007726    2.83600269918646   -2.17749837386622
H        10.44733403943277    2.63740641509666   -3.18374835542879
C         9.52491849972504    1.82904594720005   -1.42704969776659
H         9.40037865805492    0.84188774151753   -1.84709181810077
C         9.09309470307571    2.08664735698765   -0.13809658639973
H         8.62515554509926    1.31257658293510    0.45453201606205
C         5.66962671270691    0.51230948337310    5.49706330794232
C         4.57922162844985   -0.10123682188401    4.88650286833108
H         4.74284753996939   -0.83378814850611    4.10860899390876
C         3.29048792764516    0.23478526580482    5.25842493769215
H         2.45199041839528   -0.24255038559638    4.77266704428768
C         3.07259526709020    1.18884079665923    6.23861516382507
H         2.06548321305101    1.45654420196853    6.52083169714437
C         4.15095253143783    1.81716689287416    6.83886411904614
H         3.98616713875511    2.57859774637737    7.58738467726401
C         5.44028846641869    1.49129458946013    6.46155421648575
H         6.27540840718768    2.01991345035476    6.90393422083951
C         8.29260808007770   -0.26491661671077    6.38933887974672
C         7.81774878928308   -0.24642860279146    7.69558059795776
H         6.79595176544948    0.03642104554216    7.90356426279089
C         8.64925224120558   -0.60809841736424    8.74303620003993
H         8.26993361094759   -0.58895456150970    9.75490820200215
C         9.95616430982843   -0.99531740267630    8.50172619972987
H        10.60099462416883   -1.26751418389802    9.32456694003507
C        10.42725723991569   -1.04829946792461    7.19916862691408
H        11.44001659692726   -1.36902847964589    7.00133447128226
C         9.59858491492755   -0.69013902539574    6.15466116636463
H         9.94737776879469   -0.74203519183466    5.13244310527445
C         7.17048206337702   -1.47507804993254    4.22476489684736
C         6.78476334346503   -2.49649064218993    5.09157795763858
H         6.60330666801643   -2.27703486720915    6.13541549149785
C         6.62418307273702   -3.78403266314522    4.61852101902727
H         6.32236956342621   -4.57104572976729    5.29472501092813
C         6.84575634107648   -4.06642608596147    3.27886671298650
H         6.71751946580030   -5.07462363342387    2.91269326392610
C         7.22479118401157   -3.05480113552381    2.41407906339404
H         7.38988048956388   -3.26818167914263    1.36839114067792
C         7.38737559774522   -1.76268214553212    2.88508999784646
H         7.67109167717437   -0.96089517259110    2.21849643048862
H         8.41527129365737    0.97234032811772    2.49222750573979
H         7.75251002757311    3.01153758150250    4.93859673969902
H         8.85154700649085    4.46491291059139    4.97435479714626
H         7.64286386387937    4.19938996744585    6.23348398725798

