36
CSD_code = DUMMUT | q = 0 | S = 0 | Stoichiometry = C14H18ClMnO2 | MND = 9
Mn       -4.80055849084521   11.17741294836749    9.70463413810012
Cl       -4.91492114282458    9.37689019219172   10.37948897469569
C        -3.28060118159659    9.42395010417861    7.22704334205787
C        -4.51071509315915   10.03597225977255    6.98459137094132
C        -4.68105923957162   11.42415865651891    7.21186947411732
C        -3.58483600666577   12.18450839640971    7.71283626903846
C        -2.33456313594210   11.54699520440995    7.92543871107410
C        -2.20940568731836   10.16792494640727    7.75263246953445
C        -3.09268077725705    7.97125732959250    6.88781943961273
C        -5.65842240575141    9.23025587260463    6.43582341873680
C        -5.88803956184867   12.09996170467542    6.59112924425472
C        -3.65640546349295   13.69802141332206    7.75570987151748
C        -1.13569343419305   12.39163855157927    8.26341863634156
C        -0.93388112198145    9.46625915856739    8.13408638382013
C        -3.85781511026476   12.33278776426781   10.64746364344474
O        -3.20484173475723   13.04128191058859   11.28975818683731
C        -6.21774808735985   12.22636052606374    9.80984815751518
O        -7.18060022003193   12.86362363956094    9.90431955177868
H        -2.05626157580803    7.75784556112246    6.64353610503731
H        -3.69667870615102    7.69441586440807    6.02792140564983
H        -3.38472912507631    7.33570080026830    7.72629955257283
H        -5.57313629516044    9.12857514973630    5.35225435212138
H        -5.67389756530144    8.23303297823351    6.87011318579217
H        -6.61199037842431    9.70088416477092    6.65651132480221
H        -5.78519766204783   13.17833376012254    6.58783705678019
H        -5.98337349784626   11.76725794177292    5.55758702483304
H        -6.81391553270986   11.85688822113588    7.11060508340671
H        -3.39018899726929   14.10729795329103    6.77975867740582
H        -4.65291316442849   14.03715831231698    8.02709158652785
H        -2.97354734754023   14.09783412766387    8.49762107091996
H        -1.11486091316827   13.27546801564747    7.63037024602526
H        -1.16781661869875   12.71795225298055    9.30243305534042
H        -0.21010242696933   11.85084615964839    8.09929449511566
H        -0.23866985652759    9.42320677368116    7.29426550552605
H        -0.44692241378425    9.97785361375750    8.95967242000506
H        -1.13821002822704    8.44998777035955    8.46041656873358

