67
CSD_code = DUMVEM | q = 0 | S = 0 | Stoichiometry = C23H40MnP3 | MND = 8
Mn        1.16704710856997    3.71451369978201    0.82112378301504
P        -0.12695522600033    4.69083552539617    2.31661335396512
P         2.21967293325065    5.63256712394646    0.77843928523803
P         2.80154564463039    3.03251743892507    2.11019483034928
C         0.33341652407431    1.56645793919822    0.64764346452515
C        -0.53831824410910    2.51847213649020    0.13348024807397
C        -0.23893835383433    3.50545036400743   -0.84034746641130
C         1.03768107306547    3.78300441794365   -1.35175303819679
C         2.22285332339615    3.09926370101318   -1.03977779062079
C        -1.57153842912908    5.61220999231036    1.59471780960856
C         0.82050588872108    6.07727604556223    3.12531101279175
C        -0.89412391783804    4.00829296898786    3.86542880159841
C         1.61588424964902    6.83538779163843    2.07284513334422
C         3.98883775582653    5.38772625967765    1.29000742386297
C         3.94776904148877    1.74504176611675    1.42177797219177
C         4.00634750282671    4.42109094024293    2.46147584468042
C         2.63290731850414    2.45139111630125    3.86465239630663
C        -2.43797416896222    6.47788277190829    2.50058520124528
C        -1.95390398635136    2.95084835606120    3.59194255753386
C         5.05769442915074    1.18833003754092    2.30472190273623
C         1.78756046052883    1.19323187335767    3.97487358768414
C         2.41123894030376    6.78105291270108   -0.62741357941312
C         1.22646521169848    7.29518129819495   -1.15408610741969
C         1.23355141667499    8.11262131871083   -2.26579092016424
C         2.43525485225328    8.41945544388878   -2.88532697804032
C         3.61600387745804    7.89802693856095   -2.38621207578916
C         3.60814770563568    7.07918961827653   -1.26939672318922
H        -0.05952452905456    0.92424566066545    1.43065156835578
H         1.04649225197606    1.05179926856406    0.01961904342671
H        -1.54602319250859    2.56663991983860    0.55590368575545
H        -1.06766117923470    4.11113801240886   -1.20546300084433
H         1.11738584442214    4.68952726184929   -1.95811279181401
H         3.12665481273666    3.54813232772794   -1.45456085604188
H         2.26494555555944    2.01816949358813   -1.08529900990150
H         0.15045379424859    6.73871733385231    3.68050378629740
H         1.49433602359974    5.59441280841444    3.84012296580239
H        -2.19411802414257    4.85543840280996    1.10735854880607
H        -1.13819919604056    6.22538332937504    0.79742153202238
H        -1.30977979445524    4.83576940640166    4.44805431638996
H        -0.07800204345592    3.56547547898395    4.44195743430067
H         0.97094467925758    7.55635485479996    1.56243286898633
H         2.46254360945342    7.37971136279282    2.50320379611870
H         4.47074424362491    6.34203382936766    1.52612669898471
H         4.49095765989646    4.92583194633805    0.43407771883468
H         5.01007901890850    4.02843548258996    2.63980859745080
H         3.66610383434164    4.92638080397115    3.37001885842547
H         4.37507529399111    2.21041858610518    0.52801737090342
H         3.30418316859875    0.92875802698845    1.08411221453298
H         2.15423500037027    3.26838998548499    4.41334039410000
H         3.63154083491409    2.30097574951048    4.28324964871117
H        -3.19970827003407    6.97589624436907    1.90110557506787
H        -2.94490705626641    5.88271776780788    3.25564041470565
H        -1.85297421620738    7.24674488595554    2.99942407755475
H        -2.32089187208319    2.52592213153749    4.52555727408894
H        -2.80059567190266    3.37266718310906    3.05394902331202
H        -1.53316906721488    2.14689365668276    2.99239420989958
H         5.70754822183545    0.55107250794813    1.70593134786539
H         5.66994089282236    1.97896202126203    2.73253627992213
H         4.65630150038678    0.58660179623093    3.11565133849040
H         1.65041471576441    0.90491565156643    5.01643195699693
H         0.81276316018176    1.37748141652573    3.53017278481450
H         2.25203193469966    0.36496381342231    3.44469945060511
H         0.28914867096805    7.02967647986551   -0.68003862103427
H         0.30589326891576    8.50543421550964   -2.65795949906958
H         2.44852977557207    9.05500833552163   -3.75869191865168
H         4.55355963428730    8.12753193076373   -2.87285131609381
H         4.54171377978440    6.68175083275214   -0.90222769758506

