71
CSD_code = DUNHEB | q = 0 | S = 0 | Stoichiometry = C36H30N2NiO2 | MND = 4
C         6.82124450111637   13.31934924603998   14.94602633578381
C         7.98263833764924   13.83380067517153   15.48380758369452
H         8.16913937405617   14.89714671989807   15.49312727505550
C         8.92549020681416   12.95320650911372   15.99874889263248
H         9.83936609960952   13.34435741734806   16.42093760533924
C         8.70650045993834   11.58548545350204   15.98276525400958
H         9.44750767105785   10.92137754775508   16.40293973323717
C         7.55475120317402   11.06002075078592   15.41905285196118
H         7.39178397477551    9.99318886208944   15.39203379541281
C         6.61649241782405   11.92994445781346   14.89324364906375
C         5.36261840682285   11.66671340938247   14.20267006096605
C         4.75783953393614   10.48480007581698   13.80932789257215
H         5.19931576117293    9.52967105572854   14.05130116491343
C         3.57300226663898   10.55454707236796   13.09206752419815
H         3.08743603593829    9.64199464881509   12.77776209641538
C         3.00595945894788   11.77658123882402   12.75868995447416
H         2.09065583573428   11.80146186042611   12.18604380954029
C         3.60468390325116   12.96607803402158   13.15201804680355
H         3.17440873910551   13.93360495686984   12.89194441751427
C         4.77087226160739   12.89613420383376   13.88192038021301
C         6.53509823192237   15.09807730036161   12.49078188679798
C         7.49152485162783   13.95466372917352   12.26954418486800
H         8.33461897629321   14.01011951792330   12.95498755863517
H         7.87444719618144   13.99374282051483   11.25304657730509
H         6.99319530017696   12.99924594395576   12.41323021121753
C         6.61052369869608   16.13332246172579   11.54738359446844
H         7.41862748558704   16.11455651103219   10.83443391851594
C         5.67544361153697   17.15411038662570   11.45640310478346
C         5.89003008016507   18.24121675293371   10.42532387931865
H         5.08480558394493   18.96728376354807   10.49252545985270
H         5.90192837156740   17.80863724725814    9.42728567364586
H         6.84312469202440   18.73686886693570   10.59532143998777
C         5.78367587915421   15.53913077072982   16.46481063697320
C         6.16123706646150   16.81905540678796   16.12284628088617
H         5.74743449342197   17.29706713603342   15.23438377518291
C         7.07168576639554   17.47408523951412   16.94143266360141
H         7.38589489554023   18.47802298035445   16.69708969491444
C         7.58112325902974   16.85264506059578   18.07295330512618
H         8.29064735187264   17.38091741501063   18.69328842738375
C         7.18528094009889   15.57190914171024   18.42811212741091
H         7.57566394204503   15.10219181237202   19.31844290597211
C         6.27548698538938   14.91313805240359   17.61836097344397
C         5.62505523636975   13.61753175667354   17.74727461116775
C         5.77466578135869   12.62590464452179   18.70012338134154
H         6.50005474288812   12.72979839838883   19.49286402806432
C         4.97661659398687   11.49619155716799   18.61523391894999
H         5.08354946213180   10.70935089045765   19.34744073399271
C         4.03130525150849   11.37224085664619   17.61029093901812
H         3.40149377169669   10.49569821015285   17.57262120540222
C         3.88331528162982   12.35813048230483   16.64298335986425
H         3.13602458429100   12.25453240718592   15.87070616770010
C         4.69344792076151   13.47288311796285   16.70502273102816
C         5.58515373879776   14.03905368118516   14.44645507353293
C         4.83998982988770   14.61798661549649   15.72372610181580
C         2.61497749524109   15.23594380655900   17.47057676242851
H         2.35692886705795   14.18392213971857   17.57252741720167
H         1.85946124061316   15.82440670894348   17.98476841149616
H         3.57257829163377   15.40423804556793   17.95700850850532
C         2.66998555770148   15.64413256322779   16.02095550848243
C         1.56447819634210   16.37518646631234   15.56186414137677
H         0.71017545794290   16.46873045728211   16.21234176425958
C         1.53083816647790   17.01985187396579   14.33382464007601
C         0.26199408831550   17.73942999366133   13.93000720736229
H         0.38539420561774   18.15972312067359   12.93584039933994
H         0.05083879961838   18.54080324397923   14.63470268749876
H        -0.57876621762450   17.04960407166671   13.93317965937226
N         5.68654036893482   15.13436244686055   13.49663607734802
N         3.67810381477633   15.33885903321186   15.23122387223022
Ni        4.12468165745546   16.19490490254188   13.60494476295632
O         4.62075043619747   17.22943604946622   12.14809678146405
O         2.50326227008543   17.09138994510826   13.53024254263233

