39
CSD_code = DUNNUV | q = 0 | S = 0 | Stoichiometry = C18H13ClMoN2O4 | MND = 8
Mo        2.90729568422046    1.91175184940226    3.08658153786876
Cl        1.50274634459089    3.47643376581853    1.82380899309924
C         3.92753047651797    3.45534893114776    3.68707869984800
O         4.54204841371409    4.35422518519198    4.03908819547201
C         1.56169989031142    2.61986266674273    4.71440849436876
O         0.72989487937975    3.43403367875416    4.86672319518300
N         3.66716901420122    1.68683199243569    1.20655942501079
C         4.51557888763248    2.51067023251428    0.58824724732063
C         5.10782909913549    2.22041772162894   -0.62023730581743
C         4.83077316303877    0.99584033521743   -1.22608226020960
C         3.91459747891942    0.16110672562385   -0.62665380417069
C         3.31546798707924    0.54018323940452    0.57906966016430
N         1.74502358610848    0.39506591691459    2.32569679366698
C         2.20877547940872   -0.16985064213542    1.18789671809337
C         1.58125035077609   -1.28269040225298    0.62110389221502
C         0.44218756581259   -1.79320226102930    1.20653071925774
C        -0.06971962719246   -1.15468294195551    2.33439977530674
C         0.61273486197548   -0.07558286246378    2.85011692489843
C         4.90048442938612    1.05982127701321    3.75387633480424
C         3.90599811061084    0.09235368183726    4.12986794303649
C         2.95767004273221    0.59878195585755    5.00205486453843
C         2.16261562744090    1.53235888004626    5.31020504925525
C         3.82464087195577   -1.23106235356572    3.51284777446085
O         2.94077649942316   -2.02908241771571    4.14528162872424
O         4.43253826988435   -1.56356977806835    2.51819955893036
C         2.79118486945379   -3.33473306737715    3.61320395213499
H         4.72401275991333    3.43674413202645    1.10907804408102
H         5.78947749412735    2.92246300054729   -1.07174783007862
H         5.30997947566412    0.71509323282699   -2.15073332458343
H         3.66104291081238   -0.78173240116852   -1.08189353714361
H         1.98581285351700   -1.73879423085198   -0.26721168311215
H        -0.05171159483143   -2.65765915563614    0.79048969642092
H        -0.97511240566897   -1.49897681299627    2.80695562625699
H         0.25040533227951    0.43341170504935    3.73599300911445
H         5.39591510076782    1.57583419478785    4.57171712595981
H         5.60232720709905    0.69596426133905    3.00549079008454
H         1.99131952384476   -3.80259490556090    4.18191010080635
H         3.72048764568524   -3.89767254134609    3.72646402416629
H         2.53375144029084   -3.28781178798498    2.55211395057493

