71
CSD_code = DUNNIL | q = 0 | S = 0 | Stoichiometry = C36H24F6N2NiO2 | MND = 4
Ni        2.38724179054419   17.56117281061013   13.04801416200375
C         4.89529834801185   14.54153376468357   14.44302938143207
C         6.05245672875011   14.36583787012276   13.71352576924293
H         6.28927702417796   15.00801769679755   12.87876294114343
C         6.92574952048054   13.35186110562577   14.08727033310959
H         7.83641820458759   13.20545319718813   13.52628503932567
C         6.64135405923025   12.52734260533159   15.16339078489480
H         7.32872544709681   11.73718275341491   15.42592322938665
C         5.49276502920197   12.71525345491623   15.91603999514820
H         5.27968588469195   12.08226566340255   16.76365662870033
C         4.62352326312878   13.72981762631114   15.55763036441929
C         3.39000962912236   14.18670164728782   16.18223131140548
C         2.74393745061081   13.79492450044665   17.34274895053261
H         3.12463802959912   12.98061741547356   17.94003771267616
C         1.59845087137725   14.47722551713516   17.72476331705618
H         1.08204136575733   14.18454602235210   18.62690230228568
C         1.11101011528107   15.54038106671277   16.97750088951778
H         0.22743408622702   16.06483476886364   17.30806422009082
C         1.75089139728697   15.93743427525337   15.81054934339632
H         1.38272699574450   16.77925001712404   15.22002883891713
C         2.87539095798204   15.24395394117225   15.41969019111083
C         4.82801809984652   17.57207274194579   14.57127146423527
C         5.75450604908281   16.97981032554205   15.59538943512340
H         5.22265995055919   16.29356086204825   16.24901454496527
H         6.18133378245976   17.77547592150503   16.19980418893067
H         6.56875096403777   16.43896996058094   15.11768216626790
C         5.00551403648707   18.95543166120112   14.33521869349513
H         5.86405072482696   19.44759547600191   14.75895771667149
C         4.09825785069914   19.69542591399994   13.61517027003933
C         4.45355626707761   21.17639227485571   13.40837255217940
C         3.89008976456233   14.86742474918982   11.73478922247637
C         4.31658328268337   15.93281423254168   10.97241933126805
H         3.95114605083413   16.94237463330747   11.17263588385952
C         5.21222971375117   15.68136035158354    9.94119582656657
H         5.56433180838292   16.49680017318962    9.32790464043473
C         5.65689902784761   14.39091545366941    9.68961549143106
H         6.35546177548489   14.22029348506805    8.88396122748140
C         5.20914762460411   13.31607060710495   10.44317584306773
H         5.54757485231663   12.31404439969826   10.22823690418726
C         4.31381514238564   13.55775085514057   11.47160936791862
C         3.61858365277702   12.65980867982454   12.38316443353383
C         3.69727481821141   11.28665030278593   12.52978154558756
H         4.39064019360665   10.70916099409523   11.93793677033244
C         2.86910143711709   10.66835442996795   13.45336883957167
H         2.92081355210026    9.59792654001451   13.58478715134068
C         1.96439562723511   11.40614817327046   14.19890258026226
H         1.31105384916837   10.90502263673584   14.89710324880613
C         1.88684509568383   12.78706056134709   14.06603019030974
H         1.17133453043241   13.35032169233620   14.64573685235268
C         2.72674972150103   13.41110846712226   13.16770042398973
C         3.71962064496200   15.46094780585728   14.18272117197512
C         2.95122666797051   14.88900055135595   12.92137999804969
C         0.64628443351250   14.05622754109876   11.35974532024749
H         1.58571775147807   13.71638782561842   10.93239291155925
H        -0.10098090156628   14.09295630544490   10.57176985655718
H         0.32338283557104   13.33039947561961   12.10331167298289
C         0.79490141183893   15.42079185208614   11.97110893049977
C        -0.28309136423186   16.30363769108104   11.72756258429101
H        -1.18124054530309   15.91391632918393   11.27998033454498
C        -0.20540491071412   17.64635873536338   12.01086680594352
C        -1.47421967506988   18.46600810113561   11.72748350045476
F         4.62844140572821   21.81250972530707   14.58201793210794
F         3.53487168801478   21.85167163482980   12.72725713069228
F         5.61769999673894   21.31037637090611   12.74125943642496
F        -1.81978464538378   18.40897772968574   10.42795965298599
F        -1.35878983513761   19.74917841684908   12.04859473298687
F        -2.53143167586978   17.98218989004999   12.40965964895406
N         3.91646963666659   16.88183239585344   13.93443929212813
N         1.83292282150716   15.78878856095428   12.67821204604743
O         2.99796385492892   19.31153267447319   13.13558706157755
O         0.79179495970399   18.28755611134541   12.43800746650555

