47
CSD_code = DUNPAD | q = 0 | S = 0 | Stoichiometry = C19H19ClMoN2O5 | MND = 8
Mo        1.42656205823240    2.90090726219100    2.67849808710827
Cl        1.72886620671734    0.44584552876089    2.77671375031621
N         1.43819574788018    2.54895194848551    0.62489122248161
N        -0.51341338804924    2.26445348882447    2.28404602547030
C         2.53003923286014    2.54063867993980   -0.13780563369599
C         2.51393265818687    2.26046654149468   -1.48827815430343
C         1.29649923968136    1.97357291134610   -2.09614471931297
C         0.16582418171621    1.92756468127300   -1.30685026499364
C         0.26583857567439    2.19856792535065    0.06031672406978
C        -0.83637202643360    2.04631380739609    0.99586255469769
C        -2.10805517632126    1.59949049779374    0.62467876008359
C        -3.04089476430783    1.31861805154079    1.59861408436020
C        -2.66726608770700    1.45921617944160    2.93103148584598
C        -1.40690356424914    1.94040362847004    3.21708778626604
C         1.34860070443393    2.85932168151855    4.62245108793185
O         1.29304896761102    2.82678865242608    5.76294973136698
C         3.33684136789038    3.06514789999665    2.99265109811790
O         4.46328965867004    3.14795725234218    3.19073472376674
C         2.37878029570095    4.90443172978842    2.05496748068346
H         3.46111937099624    2.76680158371090    0.36448079069872
H         3.43072733104728    2.27260653288149   -2.05507480449507
H         1.23778306387385    1.77394506440493   -3.15501105177778
H        -0.78719824925818    1.67721923680731   -1.74364969244379
H        -2.35930922051737    1.47023055052693   -0.41498053104015
H        -4.03013322696987    0.97959530531579    1.33257599309513
H        -3.34804482779536    1.21391031309971    3.72995463091612
H        -1.08977502631436    2.08003412955792    4.24172067650662
H         2.81648384362889    5.00804447849303    1.06560834647990
H         2.92256467348663    5.45292525753700    2.81794667649397
H        -1.63638983021584    4.49814902321604    3.03662363216757
H        -1.29008801877122    6.06891451286485    3.73856587735599
H        -1.23240323659997    4.63562089651538    4.76716806082252
H         0.77959641788207    6.04416991960818   -2.08205457854732
H        -0.78461645548476    6.18520549502123   -1.21830157255868
H        -0.19871400523974    4.58769528639372   -1.72739546780934
H         2.04368703317646    7.12426708533336    5.18321690381828
H         0.26781577713925    7.11305294682294    5.12972496652347
H         1.20350461255580    7.31765191511115    3.62017638577692
C         0.95054602504138    4.98772677045284    2.12285400915795
C         0.45207066995057    4.85283520064486    3.46776275869978
C        -1.01997368795333    5.01128717801360    3.76737290863144
O         1.27436023960379    5.41166512791358    4.45842249012644
C         1.17804372417265    6.82144892822524    4.59657278862352
C         0.12417472017007    5.04981077190355    0.92168606078349
O         0.83585556207816    5.46011346171896   -0.15826939645697
O        -1.06151509041497    4.79128736504971    0.83725111049066
C         0.10761392255303    5.57372731447113   -1.36866380230893

