81
CSD_code = DUNWAK | q = 0 | S = 0 | Stoichiometry = C34H40Cl2N4Pd | MND = 4
Pd        6.66587522665636    6.41335454381536    9.61905072176530
Cl        5.52914275153649    8.34761267456444    9.09010586745768
Cl        7.80438120989310    4.48131589856001   10.13595734466161
N         4.90776521744539    4.58407685555407    8.26158355050569
N         5.01650425377652    5.38841372416710    9.33740446639850
C         3.88068862402753    5.33738065696406   10.02736115540250
C         3.01616971101876    4.45869253565656    9.38711708638964
C         1.62745293655698    3.91060241109780    9.28722081053557
C         0.99458145369222    4.71623691221272    8.13000787951099
C         1.77932686549781    4.24016938430486    6.89164789306729
C         2.76745302164898    3.17324885160693    7.44459225718693
C         3.70589041665513    3.99292594359625    8.27590050097411
C         3.34008247838541    2.24735662092555    6.39448209964674
C         1.92384331537494    2.54510190115053    8.60565961952071
C         0.67853616647044    1.79092895956773    8.15020770315017
C         2.73014621360541    1.60373788257019    9.50073122711754
C         6.01864159862888    4.42415988410636    7.40140110913372
C         6.53551394262539    3.15975627751494    7.16003926799406
C         7.67188271375691    3.02533681469983    6.38155711908819
C         8.29568915659235    4.14532872130474    5.85954269492890
C         7.77302896066783    5.40765380557045    6.09450268979162
C         6.62989210861058    5.56170029827819    6.86466590758362
N         8.36748174340701    8.30173471745416   10.95352191288465
N         8.30131035668254    7.46517983692271    9.89857016426130
C         9.40824601242055    7.60221816537185    9.17363963346100
C        10.22331498196323    8.54475052150490    9.78779089511528
C        11.48510311019948    9.34913064011034    9.74708146562757
C        11.02160336814955   10.77872627231014    9.38519208564726
C        10.23397072132666   11.23213231994846   10.63137593810606
C        10.32990757233905   10.02470687782238   11.60455123271463
C         9.52620252630689    8.97043840776576   10.90930860920264
C        10.01154086066321   10.32779505222428   13.05237837453089
C        11.76250340545769    9.47905042790839   11.27152428529121
C        12.90468057700990   10.42977111709138   11.61717469647533
C        12.07009598907093    8.13564317803979   11.93277594424623
C         7.26973830811886    8.40552013167609   11.83669059092602
C         6.71412650773138    9.64771393138682   12.10732278108328
C         5.59095268001269    9.73216011660396   12.91163721943862
C         5.01806626962974    8.58416322412389   13.43117971849614
C         5.58064636718926    7.34446783738720   13.16912507393319
C         6.71227234669999    7.24080881570724   12.37399399460229
H         3.76228169921836    5.92520646298276   10.92095392665406
H         1.03758063521301    3.88222229211316   10.19917656496617
H         1.10811408236636    5.78651432304021    8.29812731562710
H        -0.06901551124479    4.50043865121850    8.04412150237323
H         1.12644203621127    3.79490584867067    6.14250704744002
H         2.32311257481390    5.05537087441147    6.41473511300464
H         3.96285015867718    1.48198382744499    6.85027793554544
H         3.94439305031391    2.80783045690141    5.68378571228724
H         2.53561798045410    1.75685936129330    5.85113125521765
H         0.07387996317943    2.35433233371223    7.44908586291097
H         0.06274860687515    1.55426048841738    9.01553636015489
H         0.96534003251526    0.85493873782741    7.67581425889896
H         3.64828852570664    2.06273764534840    9.85731651920201
H         2.98638755868696    0.69560458683607    8.95936633502327
H         2.13429786479943    1.32263372922061   10.36648436788797
H         6.07199318360712    2.29745868545614    7.61270982229774
H         8.08315096152470    2.04330836614801    6.20425472007778
H         9.19381321537441    4.03538782161620    5.27029961258126
H         8.25186006047218    6.27991924927922    5.67342553591780
H         6.17938728352945    6.54776367170264    6.99220408731291
H         9.55120861213639    7.00976176051481    8.28682407606905
H        12.29707635831988    8.96499598558263    9.13593527077824
H        10.39698056843475   10.76782457548105    8.49267617799913
H        11.87630960253067   11.42389403806298    9.18901512498172
H        10.66672295271874   12.12085030507272   11.08819549201145
H         9.19422516679603   11.45490513480703   10.39262952047186
H        10.03467253267955    9.41660528866326   13.64594161287044
H         9.02224052943242   10.76981868061022   13.14579839722128
H        10.73907492468221   11.02744062341658   13.45723324611477
H        12.74212159666674   11.43952050205544   11.25854046127312
H        13.82761313936225   10.05827828868072   11.17645746631720
H        13.04128244684955   10.46966124496937   12.69567091799521
H        11.30140265531143    7.39360295851712   11.73562312119961
H        12.16165198044958    8.25841529060444   13.00966268087675
H        13.01477046705071    7.75042184876199   11.55488498744314
H         7.13497395337903   10.53260327062215   11.65522955400656
H         5.14983304954269   10.69678088122634   13.11173585263364
H         4.12957222023725    8.65476090788461   14.04070194430600
H         5.14298352384340    6.45030885400203   13.58899129665766
H         7.19610770972006    6.27336899766591   12.22876535549547

