50
CSD_code = DUPMUX | q = 0 | S = 0 | Stoichiometry = C20H20N4NiO5 | MND = 5
Ni       10.27568846550343    5.11368007504957    2.37220246423393
N         9.10193529466579    5.34826415502605    0.74231839087428
N         7.58199731816782    3.94652356084599   -0.42097630220150
N        11.60125020421129    4.76117825092951    3.90617377399325
N        13.88679428174497    5.29726512424052    4.28889145599256
O         9.01611957120190    3.82118676315974    2.84026080381170
O         6.94992478037612    4.43362506929998   -2.56344063664027
O        11.62058384891003    6.11838302422043    1.66558821657101
O        14.97753814130414    4.54539653329138    6.15338003506377
O         9.19880960430160    6.76147596480401    3.73471508084394
H         8.32475645889614    6.84375986578210    3.34127358529204
H         9.10027173796351    6.25423074294260    4.54746192215432
C         9.06180633944585    6.23351787910410   -0.28033944863038
C         8.35286304344242    5.97711594813508   -1.43183886505909
C         7.58962865243186    4.78012422768972   -1.58923719497675
C         8.33088553362055    4.25512648632098    0.66221863536005
C         8.29248013603411    3.43319861694627    1.84125101479172
C         7.46759045196381    2.31810308220625    1.83315403586656
H         7.40852457090532    1.68825157481011    2.70543436228136
C         6.73348363364064    2.02492983661774    0.67831543323115
H         6.10333390295196    1.15074744382787    0.65358865024537
C         6.79981673029604    2.82749210813420   -0.41952783287451
H         6.25988932937545    2.65831974258240   -1.33678019154597
C         9.77670527977866    7.53020977628029   -0.10141290276319
H        10.08680574776682    7.63608583233423    0.93503630839001
H         9.13080472172268    8.35834661995906   -0.38596167896750
H        10.66334085345535    7.55956239877620   -0.73185251315753
C         8.32962329342320    6.94336890600562   -2.57720729396771
H         7.83179630291258    7.87146542848790   -2.29642488796458
H         7.78585997110975    6.49306171247846   -3.40355269932685
H         9.33976423768665    7.18575009520612   -2.90219528268311
C        11.57198308252817    4.11222656956671    5.09482257594792
C        12.68117214088323    4.01160741653259    5.90439294413046
C        13.93181754095931    4.58775876872200    5.53379023604032
C        12.75319372998358    5.35452415557910    3.55048815185417
C        12.72908653184680    6.09668406726070    2.31950215547159
C        13.89227523505394    6.74180700373844    1.91687571541943
H        13.89487911543353    7.30731129901369    0.99993878403573
C        15.03817210491997    6.63959372050831    2.70882587858036
H        15.94829316794932    7.12985100232268    2.40361698328838
C        15.02153847838101    5.92809430387182    3.87001768773679
H        15.86529498500207    5.81258013021253    4.53059753932250
C        10.28458408036247    3.50665016913075    5.55090998151928
H         9.94602276349880    3.99776920882206    6.46287932204680
H        10.42971085043674    2.45263240091388    5.77982903552213
H         9.52948882288407    3.59801618793480    4.77884773544813
C        12.63929308452633    3.29487792443997    7.21993897471888
H        11.90145416712185    3.73977995985438    7.88643069950593
H        13.62010332981995    3.36071596175881    7.68346182563347
H        12.38376434921246    2.24437290432045    7.08561733554417

