63
CSD_code = DUPNIL | q = 0 | S = 0 | Stoichiometry = C28H30O2P2Pt | MND = 4
Pt        1.43977030444782    2.90273835333313   -0.47772386049791
P         2.96448262809345    1.33416444643910    0.14100911111131
P         0.80253195676733    2.91654128265876    1.70415857818723
O        -0.08246095876685    4.17251315661700   -0.98280790060263
O         2.20021744360968    2.96915441710794   -2.37525830728099
C         0.33557684657346    5.40235283394706   -1.45633724501572
C         1.31451183765248    2.58742198705289   -3.36628594283897
C         3.01949677384190    1.26077485296414    2.00045321079003
C         1.62433308393725    1.49003637624152    2.57374964062234
C         4.69739208103556    1.19264107168676   -0.37848684306737
C         5.72628408584795    0.68515183217051    0.40887195621155
C         7.00716154175953    0.60052716192577   -0.10811650011489
C         7.26826733910223    1.02116874598063   -1.40214458462373
C         6.24806390061707    1.54230093006529   -2.18214971039327
C         4.96526509008328    1.63174609274977   -1.67388979496464
C         2.25707901799760   -0.29244573740006   -0.26698829897817
C         0.92138753459581   -0.32067672605286   -0.65849750135354
C         0.31487490276695   -1.52424586276141   -0.96777053354484
C         1.04081651969758   -2.70258835949940   -0.89253311232062
C         2.37354028735727   -2.67666507840766   -0.51297531242513
C         2.98459818520005   -1.47544685579074   -0.20070435114575
C         1.61130118253525    4.34261801693815    2.49426784587872
C         2.59461308835983    4.99797849576675    1.75810453472029
C         3.25957477566875    6.08223367044482    2.30049343878387
C         2.94140149054615    6.51931203555776    3.57679173475341
C         1.95631639057696    5.87497300828494    4.30840684930671
C         1.28942808670018    4.78838994200218    3.77127733488794
C        -0.88453817370790    2.95173075618923    2.37122778667124
C        -1.28126620370108    2.35779293077614    3.56538448925195
C        -2.59487012005740    2.47340831148338    3.98513806335720
C        -3.51417018529460    3.17404663674514    3.22109656356407
C        -3.12446016463183    3.75311650345631    2.02376323960370
C        -1.81443376215607    3.64184135045813    1.59553538990385
H        -0.51807888719025    5.87787076529761   -1.96525262185225
H         0.65335749920070    6.07725189243088   -0.63882266245925
H         1.15898072338119    5.33085080524491   -2.18275461068816
H         1.22337439242240    1.48724169036181   -3.44087417645007
H         0.30658859397731    3.00769539335275   -3.23341849682680
H         1.70459857129676    2.95382908788363   -4.32934788960639
H         3.69612980901713    2.05700643978093    2.32957574385015
H         3.41620334417006    0.29840818046823    2.33690856467562
H         0.99773157663683    0.60870526569502    2.39826146569319
H         1.68002823223572    1.67544848786652    3.65046710272123
H         5.53752105991385    0.35970390429920    1.42188460972526
H         7.80590295201681    0.20402448223039    0.50252174591922
H         8.27088248111302    0.94911750643456   -1.79782554618221
H         6.45547013101996    1.88300821375032   -3.18569533290631
H         4.15463509533061    2.06186033673335   -2.25075044562482
H         0.37227080228680    0.61890599999983   -0.73177372880125
H        -0.72064727961410   -1.54482259327913   -1.27361076535861
H         0.57013206271811   -3.64317802290861   -1.13816924669360
H         2.93905125626252   -3.59597336924782   -0.46473520713308
H         4.02795696859678   -1.45192967850799    0.08251081260178
H         2.81610166600159    4.65286870213379    0.74748060374405
H         4.02031921368113    6.59163250059340    1.72771891059176
H         3.45591530731820    7.36941360087807    4.00008421790545
H         1.70418065547978    6.22428558926629    5.29919939876040
H         0.51118310282108    4.29286949197390    4.33532766891316
H        -0.57567223854161    1.80354255922674    4.16759139794210
H        -2.90261916834248    2.01408388714457    4.91373967471473
H        -4.53693023058701    3.26063614250740    3.55792229489724
H        -3.84478979292716    4.28753817264479    1.42240938964080
H        -1.48876470674920    4.05989798666003    0.64996715988080

