43
CSD_code = DUPPEK | q = 0 | S = 0 | Stoichiometry = C12H16CdCl2N8S4 | MND = 6
Cd        1.14659680040501    1.96741469798111    3.85243358110656
Cl        3.01270404167602    2.44214327051160    2.25610871544497
Cl       -0.75991234512918    1.49690146061737    5.39831006973737
S         4.52425943719674    0.73876952761660    7.12373821664250
C         3.85457292261059    1.36283570998457    5.62244999359522
N         2.64314672215352    0.94860433715717    5.37513532783549
C         2.18458764372580    0.12006045751322    6.36001993569984
H         1.19062975290220   -0.28355336072123    6.28180319059743
C         3.03635113349828   -0.11458039331461    7.37725094519362
H         2.90287940684597   -0.72037063707856    8.24866016041160
N         4.54593134825765    2.22185394606710    4.86727878102492
H         4.19821779312201    2.38853037802724    3.91657005081372
H         5.52792498824133    2.34159299762945    5.04377493953191
S         2.68987597881730    5.26563838641509    7.05817804145527
C         1.71090121782104    3.96106987454324    6.40181645231298
N         1.73361527986371    3.89052016411526    5.09986564424582
C         2.52431861936104    4.86410638001239    4.55783789897593
H         2.63471826274481    4.91205385814725    3.48890517465574
C         3.12142024896299    5.69480330213792    5.43461442099438
H         3.77631310429889    6.52018281118431    5.25025414245734
N         1.06329654198669    3.11559275109194    7.20934170701317
H         0.35628080481718    2.51077796103995    6.77767384421200
H         0.96063219500133    3.35348551873266    8.18019898505601
S        -2.14978815344271    3.06368033834821    0.47339816808046
C        -1.52240915082011    2.47713271063666    2.00704906434628
N        -0.35901496251127    2.97314465364971    2.32384678771912
C         0.09099740839243    3.84462183871989    1.37273705372153
H         1.04405442574537    4.32335856843935    1.51249568771045
C        -0.71726066683978    4.02649253450666    0.31010457753136
H        -0.58005927102006    4.64913485303002   -0.54875832706352
N        -2.19324164318917    1.56611856531978    2.72038053924914
H        -1.89042965947831    1.42742757087417    3.69017395911506
H        -3.15483876924824    1.38447257612424    2.49152509994915
S        -0.36120245658718   -1.42247324415575    0.72749612340662
C         0.58531905922128   -0.07199801638644    1.33609955157284
N         0.61151550351390    0.00793753581868    2.63713652068250
C        -0.11254923811876   -0.99519924977680    3.21661943755529
H        -0.17571180626316   -1.04065289875988    4.28939260263722
C        -0.70756558268820   -1.85780470519666    2.36952702673268
H        -1.31742932332846   -2.70965661481610    2.58532760136892
N         1.16288208285327    0.79534559401742    0.49777094005827
H         1.87005088145528    1.42070673236784    0.89857438134843
H         1.24121942317723    0.54997725781374   -0.47371701471553

