33
CSD_code = DUPVAM | q = 0 | S = 0 | Stoichiometry = C11H13I2N4O2Re | MND = 6
Re        3.27323120193128   -3.78365277312425   -1.54275543164815
I         2.90941705385576   -3.47104258561904   -4.16422035303082
I         3.02827537630421   -6.43482840832040   -1.59963066115056
O         4.92066757198823   -3.79211732198524   -1.62517966223415
O         1.58601319169004   -3.50713310251228   -1.15640255812043
N         3.47566597741070   -1.44643927761465   -0.97856041975592
N         3.56000759643442   -3.54251627764802    0.83765270491711
N         3.68709204906606    0.04682017892193    0.81694420879945
N         3.85925513898682   -1.97049945286781    2.55206220788020
C         3.46502431935086   -0.43960749391902   -1.83511349015630
H         3.37086388052234   -0.69534539594254   -2.88357844556958
C         3.56893654957745    0.87421792111216   -1.40088440794761
H         3.56611647387219    1.69629704594388   -2.09635663005115
C         3.66987065654143    1.06060540376841   -0.02770752980065
H         3.73944388369770    2.04362122766581    0.41844597257584
C         3.96751401425348   -2.95091052326745    3.42871270938018
H         4.12015422461014   -2.64690827473187    4.45559159178749
C         3.89198587187499   -4.28649739884967    3.05345212935118
H         3.99219034321696   -5.09168521250924    3.76141023186002
C         3.67501982653280   -4.53342105226852    1.70526245802789
H         3.58995118759190   -5.53815799168404    1.30914407752224
C         3.60185693424329   -1.17506973833163    0.31991609004628
C         3.67097252304034   -2.29159895540915    1.28392127377802
C         0.23684811534863   -3.31525950483183   -1.00300478495611
H        -0.01818212889656   -3.51515336321499    0.05668295591420
C        -0.53411461144871   -4.29153246828083   -1.90023193057993
H        -0.30165201997482   -4.09471591592000   -2.94574980301015
H        -1.60240233436208   -4.17412277103960   -1.74236484476470
H        -0.25104213020218   -5.31739202382118   -1.66955176936274
C        -0.12298101062526   -1.86001375584669   -1.33513117674664
H         0.41058826141057   -1.17285325299724   -0.67682485162421
H        -1.19057181860351   -1.70612500826775   -1.20858647350787
H         0.14698383075929   -1.64286247658587   -2.36806338782094

