57
CSD_code = DUPWER | q = 0 | S = 0 | Stoichiometry = C28H20MnN5O3 | MND = 6
Mn       -0.71633165857182   -0.88054062665775   14.04402900695447
N        -0.80174342609123    0.90968411389016   14.86440361086031
O        -1.21072092989545   -2.24221665126703   13.10629951083959
N        -1.60665803348265    0.21124962411361   12.52880837963084
O         0.03010235562744   -1.47541991357782   15.50377775238511
C        -1.76532007073766   -0.24106180027241   11.29510665928803
H        -1.86381597891195    0.49620064135906   10.50617905101156
O        -2.76749747434974   -1.31493977113039   15.18316659584784
C        -1.44681224381502   -2.58376018120912   11.88914557396009
C         0.15369001146846   -1.11423064968078   16.72108209507944
C        -0.14142141011468    0.23500339497644   17.11709639229533
C        -1.78559026026138   -1.59194721571481   10.91646083897256
C        -1.14321317729653    3.31951346474155   14.36288144557678
H        -0.67646491827355    3.65494383242805   15.27601819013527
C        -0.62642034934909    1.13400908828876   16.16305402125941
H        -0.91433230627681    2.11514344721293   16.52162414238809
N         1.00703627533582   -0.52250982659348   13.27299200082488
C         0.04732419778395    2.23402491122220   20.30364077745140
H        -0.11147659251304    3.24886128875957   20.63783907185987
C         0.46986062761846   -0.36889546903152   19.43365982702356
C        -1.70858197347840    1.56358900646254   12.78691652832490
C        -2.09158509003580   -2.01412659895177    9.57189301614481
C        -1.99837384476947   -3.38925229955990    9.23969217807694
C        -2.28878147766076   -3.81575301357299    7.93382747348568
H        -2.20685017627752   -4.86864324704150    7.70442472967172
C        -1.61851713927472   -4.33275173727158   10.23272607497839
H        -1.54083291551985   -5.37225962944132    9.94842239410301
C        -1.36527098916410   -3.95128735608689   11.50861710627646
H        -1.07776042067648   -4.66308202651421   12.26898083723406
C        -0.13782311182594    1.91762217966270   18.97841713222971
H        -0.43276617699066    2.70703606776127   18.30552833034817
C         0.05526162746046    0.61228315524678   18.49913073683634
C        -2.67128737919067   -2.92200898209579    6.96684088252411
H        -2.89126284573656   -3.25753408030399    5.96454138348137
C        -2.24339392017140    3.86037485873533   12.29775292939887
H        -2.67027036140255    4.59803928561992   11.63565689226902
C        -1.65307069865985    4.25810935539632   13.49099817129585
H        -1.59890077818091    5.30618700676092   13.74235483574362
C         0.71330745778433   -1.70381622576590   19.00077441873249
H         1.02910697197427   -2.42909410472671   19.73689544334413
C        -2.27016969807168    2.52856609783585   11.94474774880537
H        -2.73802163532344    2.24162955111079   11.01593472441886
C        -1.20507758751359    1.95834783484927   14.05202466472317
C        -2.50078763322189   -1.12887100114432    8.56123458188402
H        -2.60425310233792   -0.07629884172378    8.77106606550852
C         0.57166543262351   -2.06178070600011   17.70412379100190
H         0.77453944554668   -3.06705060521259   17.36423040352249
C         0.65248185154732   -0.02363370008933   20.78092331352583
H         0.96871810702252   -0.79171366110657   21.47239407245830
C        -2.77880267989811   -1.56965624757871    7.28979643335859
H        -3.08462870850751   -0.86221690426693    6.53308836099774
C         0.44224989658924    1.25985380247121   21.21803308586209
H         0.58588863851013    1.51771664442268   22.25646406659061
N         1.41102048370523    0.22062415718448   12.46114202024816
N         1.92122013361154    0.87793705880554   11.68841511792358
H        -3.25463676853697   -2.03148467289458   14.76379458905772
H        -2.57244757183853   -1.59121212284088   16.08463052197029

