94
CSD_code = DUQFIG | q = 0 | S = 0 | Stoichiometry = C42H38F2N6O5Pd | MND = 4
C        10.10520791830192    5.75927419315822    8.72503728552086
C         8.66038690083864    7.81684832004337   10.86941621066893
C        10.63266286523088    3.58914986432153    8.75328003411703
H        10.91479939863010    2.65137087639558    9.18502919633124
C        10.40115186372377    3.93299015997020    7.46652211502876
H        10.42773008282684    3.35117726427575    6.56908813623824
C         6.75792849298934    7.27949470781746   11.92076780355191
H         5.76386202064332    6.89541335325299   12.01894359191113
C         7.58858182513265    7.83399507749058   12.83226888446211
H         7.46244724129390    8.00767526928139   13.88030419439912
C         9.59321359538235    5.97929901918199    6.33156991672942
H        10.06913230165989    5.60766547476142    5.41907459432156
H         9.83221848926013    7.03800175515517    6.45475114834928
C         8.07926030563521    5.73501795415633    6.22459080298978
C         5.95997637969968    6.40467278963735    5.28469744473478
H         5.77965156083372    6.27541732783473    4.21668712872595
H         5.36005705084348    7.23761201886124    5.65257002459277
H         5.68471942692387    5.49133067148919    5.80855801520841
C         7.84649114457810    7.92224358454710    5.11425118126278
C         7.82608526371492    8.24658843026200    3.76333887826487
H         7.51201752950515    7.50966958481805    3.03971879657485
C         8.21461418016207    9.50749889439486    3.34728541868752
H         8.20315314480139    9.75116079198398    2.29571523643494
C         8.61171242124443   10.45434279220160    4.27597863976300
H         8.90446334915993   11.44110979975766    3.95145170230151
C         8.63357486111772   10.13117485887524    5.62212564598918
H         8.94252875183912   10.86813847303195    6.34734880302183
C         8.25799374789974    8.86868319679800    6.04678966166294
H         8.28617362441462    8.61223808691780    7.10535937160633
C        10.58305504036587    4.73575601293382   10.94533483161306
H        10.34503169416957    3.74185149640667   11.33148667113050
H         9.87473872733406    5.46129776132062   11.36096343357493
C        11.98330528996496    5.13738395032096   11.32999327579608
C        12.93648515415063    4.20412446877428   11.71127712500599
H        12.68304978395448    3.15447961593575   11.74944486352226
C        14.21178553483852    4.61274494566199   12.06075713262247
H        14.96505881208422    3.90475206435874   12.36793924898661
C        14.51381949446737    5.96118876120478   12.01429617598650
C        13.58886088089649    6.90910170251744   11.61537881299268
H        13.86473976645019    7.94946163176499   11.56287817653803
C        12.32106061804999    6.48216855014211   11.27204819528299
H        11.55598171329340    7.19590175727653   10.95622017626309
C         9.88042671105442    8.75816908495322   12.80728133082042
H         9.55147300459171    9.55534766451323   13.48185086787613
H        10.51726765633976    9.20402241779879   12.03906106818560
C        10.62331836707056    7.69173084467184   13.62690481990413
C        12.33542135168606    9.42119124837633   13.95008840620961
H        12.27329808257226    9.70345371462915   12.89966918627769
H        13.38576972944151    9.41865451289498   14.23230888069752
H        11.81058120331225   10.17559346685256   14.54241437079012
C        12.50420577467601    7.25011406678898   15.06664120063669
C        12.61366986946767    5.88400074442978   14.83495960541855
H        12.13279508775276    5.44625282601385   13.97841254117870
C        13.33570179098399    5.08836124523420   15.70531228980593
H        13.41879686857386    4.03024697078370   15.50690996314038
C        13.95473286612999    5.63755758004392   16.81414852736964
H        14.52370018225140    5.01400155520642   17.48708257596320
C        13.83454292285749    6.99489540063975   17.05615206165822
H        14.30365280964239    7.43490957598035   17.92382967343875
C        13.11242710456835    7.79813606501291   16.19322510899641
H        13.01660178112032    8.85132232690765   16.40860049896573
C         6.85180366437652    6.86310744512778    9.47633703287161
H         6.23458015789605    5.97532789801587    9.63201414242604
H         7.68345358994679    6.59938308452228    8.80374646692859
C         6.03847077710241    7.97386184836696    8.85849910734498
C         4.77800898275215    7.72836304842223    8.33341398914817
H         4.36047636026059    6.73382591706140    8.38199877644506
C         4.05321078754461    8.74529435051069    7.73570597501202
H         3.07362665755795    8.56803504891383    7.32057896648962
C         4.60585408030991   10.01128173273598    7.67921506337248
C         5.85566160290676   10.28677685426377    8.20482071408239
H         6.25338151656634   11.28707818293194    8.14494543716547
C         6.56712176967943    9.25921161837357    8.79403397850913
H         7.55434212160461    9.45290421161523    9.20755980333730
C        11.15719069726737    8.93053498052535    7.71260297429049
H        10.95914226981851    8.97348539780427    6.64937197791860
C        12.33606578920996    8.27393422953446    8.23064999024429
C        11.64709327035707    9.74233274303653    9.79536931324394
C        10.70598644240469    9.83899258462102    8.70286066632553
H        10.07778452271840   10.71073800982086    8.57074953964872
F        15.74948653568026    6.36213382402641   12.37986854405075
F         3.90703103447091   11.00457830155927    7.09290395591731
N        10.43499298591770    4.71435021834882    9.50734414643768
N        10.09008779050041    5.26276847847878    7.46990171546503
N         7.43199423997339    7.27445288815443   10.72836116431893
N         8.73687798759890    8.16848222522806   12.16845816528428
N         7.36602996182643    6.65647957581653    5.54246645839973
N        11.79417115064205    8.09264880111806   14.17348936360166
O         7.57719950625726    4.73526222714023    6.70157840129111
O        10.12612214407456    6.59177741544080   13.78089532466681
O        11.68856457144210   10.33786787233585   10.86115467476673
O        12.63749775767813    8.84254448797872    9.47218864252862
O        13.04833826945413    7.42331337062582    7.74826460353686
Pd       10.04699959186443    7.89974250650863    9.18755996479397

