55
CSD_code = DUQQOX | q = 0 | S = 0 | Stoichiometry = C23H21N2O8V | MND = 6
V        14.07923877240631    7.73617642808798    0.78524513557408
N        13.08970845338905    9.46489599212148    0.84700243679785
N        12.32483172438051    9.72154358989261   -0.20932246056520
O        14.28021105542319    7.94855880213831    2.45400583450106
O        12.96347219315715    7.63537251450090   -0.73026590629745
O        16.27016664855490    9.77849318051981    6.39403337929458
O         9.53099095438260    9.11386492793407   -5.88004915742112
O        11.94559891921591    6.79746679451790    1.60811804261152
O        14.29116328291344    6.01702032846483    0.61335570695696
O        12.46504422792108    2.94671270869533    0.45136577809499
O        15.30340374092953    8.39259046623840    0.15509381318005
C        14.05271669254843   10.23190497387090    2.90661894574015
C        14.55400453199258    8.94356724050723    3.23916575827184
C        15.29487139601259    8.76864708832471    4.41450309511029
H        15.65740809414285    7.77461375818631    4.62855278018520
C        15.55293702826390    9.84535981518595    5.24847511131860
C        15.04732617358251   11.11637417470754    4.92430511922347
H        15.25886945189570   11.93312047154379    5.59472983218493
C        14.31080083290438   11.29671220314730    3.78349195343423
H        13.92777918226395   12.27609480152707    3.53854169669630
C        16.83379398382790    8.54360492498385    6.77154560603026
H        16.06121971311212    7.79081147560648    6.95538730155882
H        17.37527514075047    8.73809572901439    7.69592249962232
H        17.52996844602599    8.17393236381726    6.01296383589052
C        13.27238402321674   10.39578507204594    1.72649429608097
H        12.79422605984360   11.35953699452138    1.54687788287478
C        12.32582526965665    8.69986612333117   -1.03330778290920
C        11.59245868694166    8.79398229381751   -2.29897371214875
C        11.65903558851119    7.74696363133783   -3.21373785978645
H        12.25517639089859    6.87940353037332   -2.96873919077029
C        10.98744057682940    7.81253755597662   -4.41935805837853
H        11.06313062034508    6.98663004415709   -5.10917740728029
C        10.22871972293571    8.93873378528953   -4.72928845149429
C        10.15727483696559    9.99080830358707   -3.80867819556364
H         9.56383897173351   10.85289853642707   -4.06942017142935
C        10.83066645457002    9.92216351073732   -2.61250832729563
H        10.78476900753187   10.73000064391515   -1.90069772215374
C         9.57859227001986    8.10710913723556   -6.86308251133804
H        10.60035808708882    7.94128368861568   -7.21849976531501
H         8.96599667709811    8.47092223800000   -7.68644232606169
H         9.16350047462123    7.16406995334083   -6.49345239912306
C        12.06610017297666    5.61497568159739    1.27273607148689
C        13.33870090401530    5.14285336698625    0.71243802520946
C        13.47654651388522    3.83296168196965    0.31796135906845
C        11.04600640109772    4.60248775213959    1.38182985787937
H        10.08329154727944    4.86442867830065    1.78905283778134
C        11.30505491680501    3.34373571009089    0.96649100443213
H        10.58633188143370    2.53748932494625    1.01390313972892
C        14.74514150147428    3.27907714583619   -0.25529824830475
H        15.03906955272110    3.89671089360625   -1.10790125921290
H        14.55851733648335    2.25932663035002   -0.59561013872925
C        15.87507234448338    3.30451437342272    0.77728140553767
H        16.05596929256911    4.32911308772466    1.09758041125835
H        16.78767434869402    2.91098895250345    0.33775683532766
H        15.61682892726706    2.70100692428850    1.64488426262395

