73
CSD_code = DUQWUI | q = 0 | S = 0 | Stoichiometry = C28H30N4NiO10 | MND = 6
Ni        6.71775150969748    3.59181310202876    4.91007134380854
O         6.09093672371328    2.56930517556161    3.38560930234241
O         7.80750297362115    2.74098489620144    1.96963540964057
O         4.85000810563737   -2.45502454397440   -0.16900863932301
O         9.84111266157825   -1.94911452147528    4.48562409491755
O         5.52625881281367    2.15086941563038    6.50241042232727
H         6.13178330822598    1.59480796366178    6.99833879818459
H         5.39283432141400    2.94986224592114    7.07465476216791
N         8.23653246212116    2.46148083637696    4.98135338761077
N         7.82791948203151   -1.45810378232412    3.59327183688033
H         7.19957597652508   -0.76977765270626    3.20985284352691
H         7.68168638465051   -2.42224326541443    3.34149519984343
C         6.76945924115350    2.20247444085661    2.37923236717425
C         6.25020105597021    0.98452762974271    1.66932088600426
C         5.22227833289991    0.22107805820709    2.22287409857957
H         4.77655044066882    0.53943519011760    3.15348497048033
C         4.78263871359823   -0.91745678767585    1.58525078548799
H         3.98809791426660   -1.51960785409493    1.99697237005579
C         5.35719410908900   -1.31754099057213    0.37468463122059
C         6.38370581088120   -0.55653137423728   -0.17891033627175
H         6.84370817095896   -0.83966979761367   -1.11233880004672
C         6.82259755132448    0.58246414540482    0.47035589585808
H         7.61968983359127    1.17921309189788    0.05358851997319
C         5.35530750783038   -2.89889924149921   -1.40558206966155
H         4.79268582226692   -3.79926621692573   -1.64677911131321
H         6.42003191138722   -3.14485145375622   -1.34052903984543
H         5.20084187701250   -2.15434754822209   -2.19273254340741
C         9.44856609549220    3.00445585674659    4.90026738626674
H         9.50285521867308    4.07325823456950    5.05657675466003
C        10.57883895973865    2.25202610705396    4.62357508964084
H        11.54430869386129    2.72965334711635    4.57584666182248
C        10.44227175140251    0.89636439030856    4.38674287592766
H        11.28687926597345    0.26914022562350    4.14460506643136
C         9.17212744279173    0.33158801956047    4.45730016865996
C         8.10287301635309    1.15117803446076    4.79191851608062
H         7.10593940102656    0.74439810537351    4.90626419994918
C         8.99779406276478   -1.13218973779984    4.18643747809933
O         7.34465441544239    4.61447918152868    6.43435428954299
O         5.62883836532039    4.44203300134595    7.85112858659206
O         8.58589164499494    9.63847551025625    9.98932027500733
O         3.59440114212952    9.13277082291337    5.33461521793536
O         7.90938391376984    5.03270660692192    3.31770433180632
H         7.30365697306563    5.58840162300647    2.82161666889117
H         8.04325546108611    4.23371265529427    2.74560610818385
N         5.19889288454155    4.72215323461189    4.83890759574542
N         5.60758032406351    8.64176598111122    6.22698173054423
H         6.23610824486653    7.95344206421654    6.61010611519683
H         5.75385868833800    9.60591569297787    6.47868371769173
C         6.66646488323222    4.98098770007767    7.44106842617065
C         7.18560703978832    6.19905451094707    8.15084432513888
C         8.21358210887567    6.96246600959440    7.59734055514638
H         8.65933786425384    6.64410474187311    6.66674530058433
C         8.65321192277485    8.10099351862696    8.23498177815208
H         9.44780671119885    8.70311506230210    7.82332032407124
C         8.07859019681096    8.50110137821208    9.44550801012242
C         7.05193528473369    7.74020043302867    9.99898561982115
H         6.59181907498860    8.02340761944644   10.93233515944560
C         6.61306798417569    6.60120236063262    9.34971282984828
H         5.81593587294986    6.00446990082541    9.76642479402637
C         8.08110829832755   10.08188150714619   11.22627267694208
H         8.64435233917433   10.98173083560176   11.46794874541512
H         7.01652764334946   10.32855703872081   11.16158853370651
H         8.23525173152895    9.33671473951178   12.01290354208329
C         3.98689413143959    4.17914534650595    4.92036099684559
H         3.93259502713844    3.11032693130366    4.76417455751353
C         2.85666822594597    4.93156151217221    5.19728822764319
H         1.89122681279404    4.45391137058487    5.24532948234956
C         2.99325358245233    6.28724847323549    5.43396693284239
H         2.14869056328755    6.91447067628970    5.67626493354091
C         4.26336357218025    6.85205696688041    5.36304552210144
C         5.33255817651992    6.03247504504465    5.02821743828950
H         6.32946196529729    6.43925376966756    4.91360686722269
C         4.43772200614400    8.31585243344984    5.63380420009198

