54
CSD_code = DURBEY | q = 0 | S = 0 | Stoichiometry = C24H27O2Rh | MND = 6
Rh        3.66253775121617    2.98121640773077    3.12824844659286
O         2.37854497515216    1.41236533030046    3.16159856928826
O         3.28967860013808    3.37838701136560    5.07869732693789
C         0.91689314512984   -0.19658124591032    4.28434683014694
C         1.79310818827931    1.04959765398573    4.20911345141435
C         1.75332574835054    1.63985362785053    5.48728354695712
C         0.85027015609131    0.75934278260841    6.31890178232867
H         0.95583629768515    0.86983320040232    7.39590563955172
C        -0.57504583910471    1.00072375234934    5.78124039545153
H        -1.32248649477455    0.52066989324279    6.41218206676886
H        -0.80601962940644    2.06499941624850    5.73910401258654
C        -0.51782669289967    0.37789993454942    4.37503768138092
H        -0.68579757265504    1.11543658388569    3.59009469091013
H        -1.25196566476282   -0.41703430993462    4.24589432692742
C         1.19471016175152   -0.63428158273763    5.74547228332038
C         0.31310480340720   -1.76868120830541    6.25884768569651
H        -0.74138266729919   -1.60306659463849    6.06967064382149
H         0.45327064538434   -1.87857880747674    7.33262230537159
H         0.59977333472198   -2.70448441238447    5.78351267615261
C         2.65132671923229   -1.02778932522573    5.99337112279853
H         3.34348115776134   -0.29024747857176    5.59449920357495
H         2.86737744514615   -1.98704048713374    5.52782437886048
H         2.83109116861040   -1.12001633269372    7.06292636578647
C         1.13100061602108   -1.19165654542199    3.16488129656216
H         0.46192738383210   -2.04240440073199    3.27441633627229
H         2.15886387061684   -1.54622116636717    3.16499240599608
H         0.93767965380127   -0.71340048055124    2.20718730214008
C         2.48101300008580    2.76706880201834    5.85179923839291
C         2.40612909536933    3.29194033608644    7.24176021740227
C         3.59189351317043    3.65548334978677    7.87449272652813
H         4.52377352836401    3.53821860206093    7.34174021845882
C         3.57434405165407    4.15086619879474    9.16439586948701
H         4.50042751986265    4.42106138420387    9.65062572910603
C         2.37011126183117    4.30547914147997    9.83132034185167
H         2.35437812298732    4.69425349811319   10.83904715969507
C         1.18477063784191    3.97065403496866    9.19842231853366
H         0.24268654963736    4.10639673199691    9.70977022151294
C         1.19917406097351    3.46561348458842    7.91051391039943
H         0.26998312212540    3.23068348388430    7.41595302033698
C         3.73719759557521    3.27802872842890    1.04411503078419
H         2.85613358485070    3.01885642052567    0.47273792289575
C         4.76227463005223    2.41808327457084    1.42285187864388
H         4.83237336828345    1.36151683785928    1.20200191892925
C         5.97636066275455    3.30359537796608    1.71054922150225
H         6.94621257336415    2.81469961419001    1.74319704949287
C         5.50459334704524    3.99567959823223    2.99063771301170
H         6.10070049819592    4.06005230471528    3.89080580476053
C         4.47990037556198    4.85456561051873    2.61208310773133
H         4.12240919032811    5.71451042981394    3.16189483503129
C         4.32298867402771    4.69007982062171    1.09941036691342
H         3.78000472612948    5.47002296499724    0.57275355481377
C         5.77543062007159    4.42323165660616    0.67971145243035
H         6.43162709587117    5.27796039369906    0.84408927658945
H         5.86593133255907    4.07705670283428   -0.34995287883120

