40
CSD_code = DURDEZ | q = 0 | S = 0 | Stoichiometry = C13H19FeO4PS2 | MND = 8
Fe        4.70193131510481    6.46236849202568    2.15883195212680
P         3.10373028232824    3.49599109811056    2.87949413425612
S         4.98989317333620    4.23874869308485    2.58907248109686
S         2.89685691349048    1.63093429535504    3.41373822362279
O         2.48522513542495    4.58227816166620    3.87575149798708
O         2.28002005563937    3.86096248498729    1.53372263247179
O         3.88469022654880    7.10127822032475    4.84957587578166
O         1.86319569307994    6.69671597815224    1.71632797593530
C         2.97339291725347    6.48578307729450    1.87080933736069
C         4.22716336854392    6.81988343127079    3.79907174388959
C         1.34328902628721    4.26327414748551    4.69205050468625
C         2.49309249024710    3.09776688373615    0.34397955988808
C         0.06863531581111    4.46321785186882    3.88959667186348
C         1.40973398864274    5.16107598989483    5.91694972751157
C         1.13667036315994    2.62156801760948   -0.15536169562136
C         3.21113748548918    3.97900696002646   -0.66948898211707
C         5.36232100481864    7.28398760105061    0.12188831539922
C         6.34342659708907    6.37425375467389    0.53549441759168
C         6.89301745238246    6.83843508897241    1.76794418538225
C         6.26579783020029    8.05355282554635    2.09182895589172
C         5.27408180520866    8.30926705172512    1.10613197211206
H         0.07006089854469    3.80068854752140    3.02718706476096
H         0.00647558839076    5.49112466082531    3.53941791888105
H         2.35480551189957    5.01732374268583    6.43401347573326
H         1.25671613040825    2.05990852535189   -1.07732896580080
H         7.73698834075511    6.40222321467357    2.27344327860418
H         1.42933758696330    3.20814951948514    4.98965134160944
H         3.11874424054042    2.22879754569514    0.59228485878269
H        -0.79652606707225    4.23929184674468    4.50778411149273
H         0.59483219817240    4.91787533395035    6.59280266543597
H         1.33012578013319    6.20380365778505    5.61904910830748
H         0.67488069278901    1.98011674848052    0.59112177939370
H         0.48922376436014    3.47658843036195   -0.33510748540602
H         4.16012388509083    4.31608707322872   -0.25620352586267
H         2.59897436354195    4.84876887020521   -0.89729568331519
H         3.39670331958497    3.42070346645164   -1.58267851996265
H         4.82236071821091    7.25843183586906   -0.80929001836001
H         6.69014900979280    5.51427502501650   -0.01238235773554
H         6.53167365727330    8.71093046251087    2.90307235447962
H         4.70494794054509    9.22066138828780    1.00994911185044

