39
CSD_code = DURFUS | q = 0 | S = 0 | Stoichiometry = C10H22N2O4Zn | MND = 4
Zn        1.53740471135554    0.03950208540334    3.77086401030134
N         3.52060502955043    1.00496992008276    3.38308624733751
C         4.36815449160155    0.43150072375077    4.43118069969282
H         4.03891547234066    0.86082513731975    5.38019197338686
H         5.42429114598755    0.68923589169671    4.28241120390816
C         4.21508962848922   -1.08454581852890    4.53552839485163
H         4.51963729190340   -1.56425927650167    3.60348034135728
H         4.87123556844474   -1.45025219851514    5.33754557800595
N         2.81447881151775   -1.39319172349335    4.78292584939112
H         2.56963926860499   -1.18495021072088    5.74652799677086
H         2.59757472518651   -2.36868763892647    4.61310880093859
C         3.46178032459125    2.46148629987086    3.57895425454030
H         3.02316759701181    2.62735512072317    4.56552077729881
H         4.47845587974491    2.88185144188190    3.58992523238664
C         2.61416669509961    3.18828924716439    2.54572684603289
H         2.45269381360861    4.21135581076119    2.87802156536755
H         1.64756741204611    2.70070721561848    2.45075368835546
H         3.09532743778830    3.22144578164125    1.57214655835691
C         3.97438122215908    0.64574130192273    2.03125804066728
H         3.22053215345542    1.00960115789042    1.33584297349756
H         3.95530092150690   -0.44028529601425    1.95270082995105
C         5.35208041386160    1.15886141138962    1.61083366985453
H         5.54965237550409    0.82076560303831    0.59680628584406
H         6.14429488752091    0.77391303707485    2.24864443643081
H         5.39788394572342    2.24427123195521    1.61586084909914
O         0.22242870017518    1.54935959731625    3.87380338002761
C         0.41459654481856    1.64448059815016    5.10863004373122
O         1.29728429378729    0.96577754027874    5.67242064637365
C        -0.41327598501409    2.62971318555436    5.90311336660829
H        -0.26883402179693    2.46840096149625    6.96643533739571
H        -1.45978745948108    2.51291141121424    5.63887143798250
H        -0.10583688759982    3.63949136186483    5.64025404962773
O         1.28037876077079   -0.73999654663208    1.91866650739437
C         0.35474080541885   -1.44401580613627    2.38821527569796
O         0.11918973075612   -1.45720872569574    3.61334781111171
C        -0.45095478010994   -2.32183125666584    1.45629901421727
H         0.08366492716394   -3.25874292927272    1.31301224974790
H        -0.55884918807710   -1.83133201452717    0.49399076533573
H        -1.42135666541175   -2.53031363343174    1.89499301112987

