47
CSD_code = DURGAZ | q = 1 | S = 0 | Stoichiometry = C17H24N3PtS2(1+) | MND = 6
Pt        4.74056323870679    1.08778634438416    6.34773879701470
S         4.90886983564103   -3.08442274516569    8.85089823131230
S         6.61505539014027   -2.04860084674610    6.58568568007094
N         4.73201111085781   -0.68103565014912    7.85882771257390
N         6.95282427564138    1.14460608319274    6.52559839872550
N         5.15340670425274    2.25064790088219    8.21934236398162
C         4.52290857387418   -0.12015868695106    4.70178812903580
H         5.51022079777488   -0.50965010099927    4.44901740375489
H         4.11392021078453    0.39003510082403    3.83188913164234
H         3.87131576150744   -0.96031961593557    4.94600699573242
C         2.68665508260934    1.17619057498460    6.28613462757954
H         2.26788738921164    0.25755797662172    6.70131116022745
H         2.27417630455461    1.29770422566723    5.28620169751447
H         2.35278787432227    2.02402310623329    6.88901463604063
C         4.82098274413883    2.73109176878186    5.12717134769294
H         3.89311857783345    2.94266682526896    4.60079737432791
H         5.61566451210416    2.59150547654375    4.39329683732446
H         5.06761337765395    3.58352002384888    5.76396842649904
C         5.35280933077003   -1.79568313274536    7.73675694230916
C         3.51920964030665   -2.07415081073612    9.44492572791934
H         2.61246837852509   -2.44426338386738    8.96510488808072
H         3.43297428374092   -2.18377211243758   10.52246644098165
C         3.86412823494259   -0.64396317868484    9.01847832493552
H         2.96004160890621   -0.07575178232192    8.79576404111293
H         4.40165872556694   -0.12994368113703    9.82758861609205
C         6.91672102981268   -3.83225503769228    6.72159236247094
H         6.00595321498244   -4.37569977757279    6.49052561048722
H         7.27174075931149   -4.07396625226119    7.71897241415939
H         7.68303905833722   -4.05884181660116    5.98670909817134
C         7.82989800853053    0.84146649595693    5.58035428167560
H         7.42455748314669    0.53184985470760    4.62726759857692
C         9.19968896047694    0.91009354146925    5.77242270728834
H         9.87424339554883    0.65315420415498    4.97252630275196
C         9.67109419677271    1.32429254702428    7.00771438959092
H        10.73004928575712    1.39810076543322    7.20053091843424
C         8.75695040434177    1.66145650432312    7.99043815148149
H         9.10399408424513    2.02328761074906    8.94407030977336
C         7.39259735800809    1.55959114992685    7.71980319625165
C         6.37431920864760    1.97576527915337    8.70080904826266
C         6.66324569647484    2.12374600675661   10.05728935190511
H         7.62893500048670    1.84664323304896   10.44691317058617
C         5.68987184585557    2.61501088476550   10.91049445031389
H         5.89680605769672    2.73431698779898   11.96272681880227
C         4.45484705043684    2.96085527487093   10.38490888279478
H         3.67812090351145    3.37728818882540   11.00488029290419
C         4.23335145176070    2.74581204374297    9.03400690261238
H         3.28040358148947    2.99521263206196    8.58766980822137

