148
CSD_code = DURPAH | q = 0 | S = 0 | Stoichiometry = C52H76O12Si7Zr | MND = 8
C        -1.68636474115170    3.57456059406240   14.38150905440906
C        -1.96500164441497    3.21439657001945   12.91845014880806
C        -2.19065437210244    4.46836399512135   12.07616914340226
C        -0.97686055370112    5.38855378921667   12.14764803925851
C        -0.67814968335357    5.75257536319412   13.59822689605465
C        -0.45820971009120    4.49157332551125   14.42957373197077
C        -4.06721657572648   -1.84812771150770   20.54209559104538
C        -4.46801766189567   -1.09735309950667   21.81442224066461
C        -5.21376270118228   -2.01665715447051   22.77901753634250
C        -4.35625344472685   -3.22546536096230   23.14010666278534
C        -3.94723044007201   -3.98054976286599   21.87943590592786
C        -3.19966173876134   -3.05315626555672   20.92499797201135
C        -4.76057444051427    3.26531228116968   20.46158338805755
C        -4.92266344894376    4.75205817364867   20.13036940114781
C        -5.65653595789525    5.48343163672157   21.25160175504005
C        -4.90589571925282    5.32688306190345   22.57000661799568
C        -4.74318943486682    3.84946912968973   22.91263806699439
C        -4.01228698533159    3.11814043546314   21.78947949868317
C        -5.63272551228290   -2.72725427739559   16.92364254469000
C        -6.40074808336514   -3.07534179827158   15.64182266320206
C        -7.38657046132822   -4.21606365682119   15.88419418003805
C        -6.65710706574429   -5.45305395937055   16.39482013490165
C        -5.90173251443845   -5.11957376443781   17.67623051892368
C        -4.91160513925263   -3.98641544904178   17.42228914153325
C        -2.17099968885475   -1.78270113877739   13.08644082219344
C        -2.75720710771510   -2.96632671680097   13.50288037964010
C        -2.32509887784007   -3.51271794954948   14.96921841492796
C         0.13344807948447   -1.62886394069397   14.07543832064679
C        -0.73074972842132   -1.46823542421753   13.00471434306725
C        -2.27689180339073   -0.42989620940796   12.74938094196346
C        -3.38954322809469   -3.98923454001026   14.00449023465987
C        -1.59880764843142   -3.25106285743822   15.95063055792547
C         0.60968384489551   -1.79974974825761   15.21272597062842
C        -1.15578051666634   -0.76419159710209   11.87227813737633
C         0.08775613804292    4.37192985826966   18.97425922632308
C        -0.70711255385434    5.60995491652879   18.55560688721728
C         0.00066401176903    6.89212499482454   18.98612012466731
C         1.40373492973598    6.94999814082514   18.39084507272438
C         2.20859831193757    5.72901163587687   18.82408075580541
C         1.50362123132405    4.44424043558306   18.39604669549447
C        -5.37297755564205    2.49040454667096   14.89527601914775
C        -5.13745610108793    1.38299672465822   14.14235020383957
C        -6.15889947047958    0.36128762352354   13.83701023672949
C        -7.46371201582841    0.59517100753492   14.59185485233632
C        -7.81888140030192    2.07810268190923   14.55446869097239
C        -6.76587293921304    2.88285147298235   15.31397320736432
C         1.06898409212299   -1.17524226942598   19.10129060912854
C         2.20068128171348   -0.76927120578645   18.15118279157723
C         3.35143865755018   -1.77084695643593   18.19579574581449
C         2.84471084215509   -3.16220960124749   17.83277201408455
C         1.76329072610758   -3.59114213792049   18.81759301261887
C         0.60219370135593   -2.60121896849801   18.77875992255942
O        -0.87873608470565   -0.13622687554209   17.31340422624443
O        -1.65623771196887   -0.52036409472060   19.79928449738328
O        -3.19073685785453   -1.31607869060199   17.79541264094818
H        -2.53452630069485    4.15629558729149   14.76278813169246
H        -2.83605536494385    2.56432499784601   12.83896315051004
H        -1.11195528293875    2.65934154413160   12.52757485230376
H        -3.07103103257694    5.00268418151091   12.44368439698618
H        -2.38079600608600    4.18480876342594   11.03934312252850
H        -1.15647472608270    6.29314497295363   11.56237323681969
H        -0.11306769758504    4.87681499075096   11.72008620692586
H        -1.51624331511536    6.32015093118914   14.01032997580068
H         0.20963862342558    6.38640288235638   13.64680813780218
H         0.40218241650561    3.94412200439387   14.04353903398795
H        -0.24033575592553    4.75759642063159   15.46299036573901
H        -4.98692142191939   -2.22811012388018   20.08556543235085
H        -5.09198665572291   -0.24287077990244   21.55126185151749
H        -3.56643108472919   -0.71478274363725   22.29403766559618
H        -6.13919172998773   -2.35869512038115   22.31032092490130
H        -5.48010137498373   -1.46655136893161   23.68401988199871
H        -4.90785506378530   -3.88736374545762   23.81133312410000
H        -3.45993102900458   -2.88691179306701   23.66283638705044
H        -4.83889661055020   -4.37106747244216   21.38388943356656
H        -3.31325673804844   -4.82886223639286   22.14391009559753
H        -2.29193911436765   -2.68703483360319   21.40509000191666
H        -2.89955831267472   -3.59910692736389   20.02894081385175
O        -3.58471252933006   -1.15133668278010   15.30659243204150
O        -0.11062084062976    1.53440178046331   19.21575541866168
O        -2.36349213451544    2.92379893876245   18.93835479139970
O        -4.62879523986729    2.58879044934431   17.65156484380095
O        -2.88193375504139    1.31225674328117   16.03667877881573
O        -0.79009231536807    0.77667295208897   14.78752557541330
O        -0.75173086088586    2.69018164747125   16.84964636923532
O        -5.20762539404613    0.15892122054932   16.85954557355638
O        -3.92010370753875    0.74222938872378   19.34879422692536
Si       -0.41248850067952   -0.03336004443130   18.80785310975469
Si       -3.16872126109381   -0.71046515273494   19.31851706335544
Si       -4.38194264836848   -1.32488149139012   16.64369527600403
Si       -0.79406917174441    2.77678704386942   18.46505124194134
Si       -3.84053766029237    2.33310411136431   19.10247998306106
Si       -4.34435898411263    1.44914422523078   16.57690378587466
Si       -1.37011359830380    2.04747422204691   15.48723289432809
Zr       -1.57692099053075   -0.95205630411284   15.71986640396848
H        -5.76175244965108    2.84295004829574   20.59514862143779
H        -5.46626026980253    4.86094884625958   19.19125127417569
H        -3.93414651224906    5.19262363490548   19.99668640663365
H        -6.66216963941980    5.07079627840784   21.35744291764495
H        -5.75294426486383    6.54213952281474   21.00231902268001
H        -5.44460344391278    5.83951999415697   23.36969173977450
H        -3.91988151457212    5.78631595901261   22.47981372325384
H        -5.72852115952215    3.40103537715917   23.05685102222275
H        -4.18743124031777    3.74342326810403   23.84601674002022
H        -3.00949031893571    3.53030004055114   21.67317955037992
H        -3.90683889527420    2.06110172263620   22.03344449799995
H        -6.36647329381185   -2.43376794195518   17.68305861361783
H        -5.68231793772670   -3.37489119703679   14.87621961242806
H        -6.94087417757310   -2.19973776574001   15.28079270820405
H        -7.90956085740580   -4.44951998739765   14.95499964585910
H        -8.13174914437188   -3.90316611415966   16.61962559544197
H        -5.94644661738511   -5.78737726157373   15.63823602612530
H        -7.36977715722653   -6.26043595166895   16.57545157186818
H        -5.36484500646761   -6.00007081380983   18.03234091155208
H        -6.61228790444525   -4.82184244650604   18.45147426233371
H        -4.35757910727339   -3.76120877522429   18.33207968688913
H        -4.18748112250888   -4.30059571291788   16.67050206470526
H         0.17646187973821    4.39098813890288   20.06431558315825
H        -1.70416861313561    5.56507875402403   18.99506576395363
H        -0.82431479611380    5.61068604248092   17.47116831292280
H         0.07049555485012    6.91926412156185   20.07573149247582
H        -0.57660149395012    7.76236389221816   18.66526594954789
H         1.90823851877353    7.86450804701049   18.71067252367504
H         1.33350340728617    6.96818833226716   17.30125734090792
H         2.31884658622778    5.73748527158799   19.91053806683811
H         3.20761841206652    5.76753154252518   18.38518917009988
H         1.44769127429386    4.40388345455754   17.30745416685632
H         2.07240866245058    3.57621127960974   18.72929013177181
H        -4.64297341947096    3.28946120349297   14.88449580986341
H        -4.15787085480807    1.20043786866089   13.71365250976968
H        -5.73573454766670   -0.62131408771739   14.06055648797190
H        -6.32662590385485    0.38553933245393   12.75388941282699
H        -7.33532143388706    0.28599313179861   15.62888951520871
H        -8.26294234387200    0.00044261309751   14.14777912930665
H        -8.80041166617223    2.24614661249796   14.99810445555399
H        -7.85536806039495    2.41487188371843   13.51618585156398
H        -6.90174646765161    3.95041633989835   15.12993951486012
H        -6.87922349847919    2.72511858048695   16.38745316732403
H         1.45210381453690   -1.15844731283831   20.12499731813115
H         2.55642207543531    0.22714330077347   18.41907571389163
H         1.80136095594461   -0.72440114306946   17.13328601118194
H         3.78552187782246   -1.78981180957866   19.19913331177892
H         4.13263469610699   -1.46460506402843   17.49747601516618
H         3.66990039971068   -3.87808135555332   17.84283283878539
H         2.41896171784870   -3.13537272685748   16.82837562103031
H         2.18265797921558   -3.62969558163876   19.82671370709278
H         1.40168196713772   -4.58892958056297   18.56314781582183
H         0.15443006199676   -2.60904801048776   17.77408896761385
H        -0.16799806455115   -2.89838618703414   19.49309172625782

