42
CSD_code = DURREO | q = 0 | S = 0 | Stoichiometry = C17H17N2O5V | MND = 5
V         9.50743288602165    5.87278104387248    2.47993074051032
O        10.61742626137956    4.69797017822329    1.78095577143602
O         9.05565053514169    6.68523624173587    4.07359104655877
O         7.08290673148836    4.53539316140921    7.09523428352128
H         7.53716890457850    4.22100058558647    6.28379352226608
O         8.18722793806218    5.73979461462449    1.72047026456354
O        10.35072052892105    7.19843781327113    2.10039139330653
N         9.02866222742521    4.31525228208436    3.67954532644942
N         8.40798368939143    4.67962067455411    4.82080579695318
C        11.21110002771024    2.99981037033441    0.22539825158229
H        12.25706318417269    3.29580711670682    0.29612227035840
H        10.78420851226792    3.49296381467012   -0.64827787345614
H        11.14013753137395    1.92416706513016    0.10247323310486
C        10.46741858621398    3.46239751153251    1.45041520807448
C         9.69127493026794    2.60760624340613    2.19410664370279
H         9.61537833795772    1.56920046830777    1.91487617323656
C         9.01888924656669    3.04595751826102    3.35701345984351
C         8.28801420973305    2.06690159836847    4.22677646020778
H         7.24665894871610    2.37347590294101    4.31678273931834
H         8.71674187039397    2.06832181656705    5.22833403710251
H         8.33824892798966    1.06493187962917    3.81303871018951
C         8.41784552435672    5.98316421092533    4.94320805540347
C         7.73646529543735    6.63276673985158    6.06643062006200
C         7.09770434270418    5.87925454570103    7.09530199506987
C         6.47960694579392    6.54700887115872    8.12831103421381
H         6.00206136645121    5.96646654961352    8.90263858486855
C         6.45264792697955    7.94991089791752    8.19071790914256
C         5.81650371435932    8.64308655065083    9.24302383614077
H         5.33910202713217    8.07103501628457   10.02530816037251
C         5.80310142927449   10.00897404237735    9.27226378669573
H         5.31320622100838   10.53129447018265   10.08114955818672
C         6.42404986289455   10.75152164545244    8.25338257856255
H         6.40074776618271   11.83049978269982    8.29543577629534
C         7.04900641548572   10.11263263271389    7.22072546144200
H         7.52783550436950   10.67497748268574    6.43192049613839
C         7.08119256682871    8.70232917617635    7.16046174072536
C         7.71359313239242    8.01127866059195    6.11689127953929
H         8.19392403457930    8.56419680674998    5.32102222625331
C        10.65785862260710    8.48849402374090    1.80772518829915
H        10.29108472830197    9.13280522303760    2.62429444144747
H        10.17634254091979    8.79862324776130    0.86806504472132
H        11.74700601616819    8.61985152250937    1.72334476759041

