31
CSD_code = DURRAK | q = 0 | S = 0 | Stoichiometry = C11H12N3O4V | MND = 5
V         5.81385512986520    1.66578391018208    4.41941612195680
O         5.91661966524630    0.37020959407011    3.60000576193859
O         3.96813007111239    1.66579749662392    4.59604446102609
O         7.59535276099650    1.66580073784901    4.96652947746679
N         5.69949983620954    1.66579392084775    6.57094104448121
N         6.90210175206297    1.66579209934389    7.13696806764247
N        11.87243573120579    1.66580406685795    7.43685992591830
H        12.84220841711181    1.66580899988886    7.71947638277268
C         1.64035146506600    1.66578596612652    5.04206307174811
H         1.59394330354071    1.66580084647369    3.95578190103351
H         1.13372092141260    2.54787013405857    5.42851661346209
C         3.08877808510783    1.66579076156071    5.47925225672134
C         3.35918473139448    1.66578792276157    6.86386396546557
H         2.52715678765574    1.66578348765368    7.55162586168016
C         4.64527758038626    1.66578898820226    7.38483216655559
C         4.82124797105706    1.66578192688878    8.88005959195531
H         5.87757868577206    1.66581098686739    9.13223833858970
H         4.34674787536042    0.78421727922205    9.30747478515362
C         7.85663715090658    1.66579497190083    6.21120757942491
C         9.22026922971264    1.66579494778507    6.66812115301190
C        10.26535977273874    1.66579766601633    5.70791054569029
H         9.99167033720693    1.66579620835189    4.66370849060079
C        11.56126629703054    1.66580211368478    6.11199915705491
H        12.38935159900413    1.66580482465693    5.42113619866732
C        10.89805743149435    1.66580000877835    8.38659435502813
H        11.22725468066866    1.66580118675158    9.41371530035012
C         9.58508952573309    1.66579526070105    8.03556873976148
H         8.81019874680168    1.66579219238418    8.78285881401439
O         5.91662503226750    2.96132099866876    3.59994809854767
H         1.13373614117364    0.78368149761421    5.42849060415808
H         4.34669328469785    2.54730899722726    9.30749116812212

