67
CSD_code = DURRIS | q = 0 | S = 0 | Stoichiometry = C34H26N4O2Pd | MND = 4
Pd        3.95999467996545    3.62827267925948   24.66422144874176
O         4.46717648559954    4.43835627897585   22.83344497319483
N         6.15909608265533    2.15486366002854   23.50826469103514
N         5.67217974080036    2.66526406972145   24.56045498160049
C         4.97360350437576    3.65245131105378   21.96623547505694
C         5.77187755344677    2.49496308177699   22.27011118873357
C         6.32029895047462    1.69741753053898   21.20716249191882
C         7.09393246936038    0.55779232460998   21.47530306820884
H         7.28724524874167    0.29868018604860   22.50456445003863
C         7.60147792225549   -0.20357209353610   20.45208439087222
H         8.20053186351948   -1.07488371396005   20.67343325873912
C         7.34785965295764    0.13787421226311   19.12139176862346
H         7.74841566573275   -0.47180778598864   18.32504714466567
C         6.59479629319468    1.24785013402863   18.83322219128611
H         6.39463050625226    1.52429086701905   17.80762314861025
C         6.07167777760906    2.04716515541571   19.86157621208331
C         5.30097473979222    3.20945343806685   19.58661811523393
H         5.12251281340848    3.47310956474667   18.55324442459596
C         4.79628732430940    3.97689749400353   20.58075501096275
H         4.20876933739417    4.85974943573372   20.37462821385390
C         6.22430566806231    2.28868434586873   25.78964421842242
C         6.49681355561676    0.94957293416392   26.06288483676294
H         6.31404191263624    0.21676420573977   25.29056650490795
C         6.95340294554180    0.57375133138142   27.31055298307785
H         7.14813414122118   -0.46716234393468   27.52118864657467
C         7.15191129608621    1.53361393100145   28.28833881238101
H         7.49864400161728    1.24445807712826   29.26920688658975
C         6.91623956710467    2.86968584175342   28.00742053612727
H         7.09355413838949    3.61387574801829   28.77081126853000
C         6.45958152432069    3.27627137161498   26.76383492427269
C         6.28246502818317    4.73574270275707   26.44620852802851
H         5.22924201609788    4.97857668178233   26.19127470221606
H         6.90442587048821    5.01162058293658   25.59022869459584
H         6.57222110746541    5.34523120439220   27.29935459080850
O         3.45278623940053    2.81736972722746   26.49481281604905
N         1.76030255039281    5.10087404015731   25.82088687767454
N         2.24765226189059    4.59140271404188   24.76846299237255
C         2.94587388286678    3.60266361602946   27.36229294447488
C         2.14725256307447    4.75999816759608   27.05899514041970
C         1.59845330922466    5.55666278192607   28.12238892623702
C         0.82404977266340    6.69596762112377   27.85504242394357
H         0.63033088246661    6.95554676753440   26.82596656802403
C         0.31621811218141    7.45646707804277   28.87876282703970
H        -0.28341824733296    8.32752878789391   28.65801484111135
C         0.57027754367678    7.11450780980914   30.20924706995647
H         0.16951642833189    7.72351870727662   31.00600155709473
C         1.32404371256024    6.00482856886567   30.49666555125653
H         1.52459738825802    5.72789523975836   31.52205717950191
C         1.84745591299483    5.20637693407009   29.46778503712225
C         2.61874887198917    4.04436768379477   29.74218744038539
H         2.79764153466519    3.78040257951856   30.77539909262134
C         3.12349227991524    3.27756648222567   28.74759441938482
H         3.71138081448537    2.39482264658570   28.95310861948456
C         1.69627581129040    4.96913079659568   23.53922428524274
C         1.42545674441199    6.30871504935834   23.26653547334035
H         1.60905752281875    7.04093058362606   24.03916016980425
C         0.96985379797575    6.68575493788900   22.01885454425163
H         0.77716690859476    7.72709012424020   21.80854879626174
C         0.77066520757220    5.72665892577999   21.04043890905282
H         0.42494501031543    6.01675716667204   20.05948422986328
C         1.00486687450150    4.39020578847500   21.32068812657987
H         0.82687321609502    3.64646640208722   20.55693176370819
C         1.46050120353474    3.98238599740079   22.56426627507808
C         1.63543425116386    2.52250542607203   22.88106480404133
H         2.68622930203834    2.27990492574810   23.14628638035756
H         1.00534303038744    2.24512704968026   23.73056553244529
H         1.35425392092259    1.91412442849311   22.02427560447738

