41
CSD_code = DURRUE | q = 1 | S = 0 | Stoichiometry = C8H24AuP4S4(1+) | MND = 2
Au        5.91566897432047    9.73675079819650    7.47452245355364
S         6.27112694886705   11.51805590738767    9.27784824205266
S         8.15506927573180    8.38080985878421    6.85995245254004
S         4.88290218994199   10.31855744329567    5.20595457440277
S         4.63132175989273    7.75063826132028    8.75219761096976
P         7.94838865243946   10.53912828697500    9.60297791620216
P         8.98220098822689    9.95294459067477    7.68787410903674
P         3.97999183506848    8.58163758421108    5.41934421878598
P         3.20492121515811    8.27090456810459    7.51297000836362
C         9.09859817600164   11.55098858256945   10.58825841137882
H         8.57547099643490   11.80203239654491   11.51315252002612
H         9.32403210514661   12.47555467649715   10.05686470122543
H        10.01161353710239   11.00412032939380   10.81855494315298
C         7.77666766049847    8.95793987552455   10.49036475885203
H         8.75391105443277    8.51651150930307   10.68345186608757
H         7.16730471830688    8.26947507630434    9.90126697577541
H         7.26469279535372    9.16204304476319   11.43269991424268
C         8.92635912610098   11.48550751910967    6.70104459548581
H         9.44478537438268   12.29538199120358    7.21395728660778
H         7.88583842380549   11.76535297128894    6.52175465246294
H         9.40789285167945   11.28072516990631    5.74251130658962
C        10.74022127109425    9.66378402703875    8.07172498513835
H        11.22824171740627    9.41654220160170    7.12672767593306
H        10.83223838629890    8.80894358144365    8.74195780884853
H        11.20461755418293   10.54757080373092    8.50593794401533
C         5.02056037020738    7.11496155578856    5.13282952510903
H         4.42725067604355    6.20314695718436    5.19557884593283
H         5.82666623755035    7.08593348616454    5.86890598688507
H         5.45774468536445    7.20970045848525    4.13682885123374
C         2.57830817645910    8.44417679330287    4.26468024692798
H         2.98853273085954    8.57750123097953    3.26170808853175
H         1.86446470102558    9.24557894737793    4.45552375654117
H         2.09639718512994    7.47055262990534    4.33891463742051
C         2.37330585633971    9.85092658541300    7.88501269850511
H         1.55392295066964   10.03033847454143    7.18954986884625
H         3.09733993180866   10.66619179489413    7.82442384376238
H         1.99109092143488    9.79286076595736    8.90608666117938
C         1.88885927896668    7.01225427794726    7.43676528316122
H         1.50387099319848    6.90304678856183    8.45270089693487
H         2.31348687795561    6.05811414856142    7.12396745663443
H         1.08452083912014    7.31551404975268    6.76855142065226

