52
CSD_code = DURSEP | q = 0 | S = 0 | Stoichiometry = C22H24ClN2ORhS | MND = 6
Rh        3.92822347182271    6.95115677450571    9.62303819918030
Cl        3.52874843129438    8.20132845425264   11.48874997375503
S         2.20208197732644    5.40117631054989   10.26130233085593
O         4.20539779357238    3.78289802020803   13.98394060045247
N         2.18307006636447    3.62087527631303   12.27902015208745
H         2.72393582068010    3.32163134913943   13.10499312321895
N         3.77301387286394    5.29261066382194   12.32689110838386
H         3.94632536520012    6.27337990678893   12.00917258097975
C         1.13357126432267    2.77621902133914   11.92326915369074
C         2.69636619291058    4.71138444083960   11.70548521602169
C         0.17782362136249    3.07272708328933   10.95650109331291
H         0.21642861690897    4.00424982356957   10.41947974406708
C         6.18050200974426    5.63831486888071   14.98977836085201
H         5.64980940324780    5.08485276715880   15.74968580928905
C        -0.91091210273302    0.96844523725125   11.38109072585081
H        -1.70377992857661    0.26809505533700   11.16732035067391
C         5.70465217010103    5.60895250965407   13.68167277092347
C         4.50267590178585    4.80263258004014   13.37631804237679
C         7.51725137671117    7.02727601133675   12.99828308414530
H         8.04761967468927    7.56181559670744   12.22397837469583
C        -0.83407734698127    2.16655401267506   10.69298495046703
H        -1.57154611798780    2.40601510086242    9.94182663880119
C         6.38702901126611    6.29866085553894   12.68109409795838
H         6.04753520454124    6.24837282917726   11.65316509904793
C         1.04737412144334    1.57195384599632   12.62498489965695
H         1.78389601630579    1.34766213544253   13.38336570588174
C         0.03410597717500    0.67591950629891   12.35209221852142
H        -0.01980468753411   -0.25321456153418   12.89931882467329
C         5.77464324959068    7.98469024279200    9.35414040944988
H         6.04852589282113    8.45253412417200   10.29937492712057
C         3.77628053811594    7.33727237433837    6.65546781294246
H         2.76463601337939    7.73826721780084    6.55448132993582
H         4.07026084063465    6.94735888964822    5.67488664777108
C         7.30504673848130    6.37867531055665   15.30122245058559
H         7.66353035924903    6.41170399102626   16.31907170717211
C         7.97130843217554    7.07685395773291   14.30711714375819
H         8.84958646214285    7.65611865806579   14.55062563261128
C         6.83471349904881    7.06515416803292    8.79105521833437
H         7.37115285947452    6.60477462964585    9.62403401070374
H         7.56359504649492    7.66206138643509    8.23233869409724
C         6.25670947505134    5.95597814405726    7.88997998865139
H         6.29171639291658    6.25927918365806    6.84283233125494
H         6.87793677078427    5.06370058137985    7.98739594498524
C         4.82739773679265    5.60274228186605    8.24813192311992
H         4.69440143401372    4.59005858329511    8.63201211108301
C         4.80227827073534    8.61255921492111    8.58533509535327
H         4.33301015606912    9.50782507644240    8.99262796337253
C         3.72163795115498    6.20319406095265    7.65140201897091
H         2.80488967629969    5.61706851223153    7.58378723791028
C         4.72268997773529    8.47469010979464    7.08157156956992
H         5.72564487658990    8.30580061874844    6.68752442316200
H         4.36009017242328    9.41229320697013    6.65638017824065

