90
CSD_code = DURSOZ | q = 0 | S = 0 | Stoichiometry = C40H43CoO2P2S2 | MND = 5
C         8.86205195023513    6.07911520335215    1.20340408185662
C         8.67189216977821    5.61680429465779   -0.09253750442981
H         8.89920671049479    4.59186246463888   -0.33922010599721
C         8.19226675724808    6.46935136073315   -1.07213930274461
H         8.05096177559756    6.09998163091343   -2.07742185934403
C         7.89289794471249    7.78743570501284   -0.77293523597988
H         7.51862370730788    8.44871178544309   -1.54057795998394
C         8.07446858359219    8.25623664295120    0.51902393518152
H         7.84260883258964    9.28381810248190    0.76145964879979
C         8.54737745488319    7.40623771434192    1.50002009693108
H         8.69056461428182    7.77202825015624    2.50901400272725
C        10.67668923326539    6.10452019637368    3.29150679968501
C        10.88479548499311    6.13887590118507    4.66371095578786
H        10.27546711332957    5.50800737011958    5.29629114875275
C        11.85896249773539    6.95632939363110    5.21075973580886
H        12.01055064258023    6.97456579167233    6.28056567602115
C        12.63843240665611    7.74972884275860    4.38684309039285
H        13.39731547931120    8.39130435217337    4.81025327634518
C        12.44484839592701    7.71554423560526    3.01452563010998
H        13.05707431537890    8.32746604894040    2.36774632935790
C        11.47267454834150    6.89886825504540    2.46838535985746
H        11.32953992897218    6.87314630582965    1.39711522030378
C        10.40647730296093    3.76341864589603    1.74145285534730
C        11.79430901507135    3.72564972229672    1.78962051517798
H        12.34447040651374    4.48769279811038    2.32174003074518
C        12.48106407149631    2.69967148404466    1.16320878372881
H        13.56084201426860    2.67740273990859    1.20397021995296
C        11.79495343773619    1.70280718968415    0.49249445220074
H        12.33670789696832    0.90175602727907    0.01115329033906
C        10.41047978054260    1.73085069671678    0.44861401747549
H         9.87214943791657    0.94962428785699   -0.06923691807480
C         9.72019107937044    2.75084144947509    1.07435325122271
H         8.63871365907085    2.78248047507851    1.05955168052936
C         9.40498747831119    0.83735778327609    3.84240369967564
C        10.58329373389855    1.53435901581429    4.08545205662698
H        10.51953219630197    2.56158914812751    4.41404818361971
C        11.81149267412812    0.93020651024121    3.89650468047799
H        12.71874822920594    1.48354999516755    4.08951574467570
C        11.87812292112543   -0.37967029403428    3.45209801597525
H        12.83665941021503   -0.85197415344934    3.29360406622742
C        10.70997573982972   -1.08299366103582    3.21242844788140
H        10.75607086593044   -2.10758758277992    2.87178921361484
C         9.47889287744658   -0.48338651182091    3.41072098442198
H         8.57618884830033   -1.04863233945861    3.22947574840375
C         6.67199360893393    0.56928725118465    3.26582799973426
C         6.82414899622575    0.42477081178969    1.88803440738332
H         7.63032750212857    0.94141003686381    1.39208662138828
C         5.95704443354987   -0.36984893881329    1.16419330952635
H         6.08646899159178   -0.47246540666366    0.09677220286895
C         4.92029199997334   -1.03043967591669    1.80467966317952
H         4.23926356667103   -1.65016075861545    1.23980639641930
C         4.76148635581549   -0.89324989981146    3.17294588425958
H         3.95686559309064   -1.40760647188892    3.67900091419484
C         5.62800609357400   -0.09598910580292    3.90164428907973
H         5.48820434213717    0.00442908551449    4.96842729262763
C         7.46981729088231    1.25376452556371    5.86376688211586
C         8.22876431046964    0.35446359694654    6.60038154687049
H         9.08804558531618   -0.12150159796254    6.15113077190792
C         7.88815840123664    0.07044705124046    7.91257742748748
H         8.48492432041274   -0.62858112199696    8.48087140292798
C         6.78765559371207    0.67280853038609    8.49745408836366
H         6.52406718835694    0.44511110379075    9.52003512247066
C         6.02664334181426    1.57339486680710    7.76830748032617
H         5.16804091081977    2.04930640363041    8.22095491345533
C         6.37083750478080    1.86651372030632    6.46224914012339
H         5.79001111797873    2.58084738737960    5.89155029147827
C         7.16022346587734    7.09956436727337    5.11734076734828
H         6.84308647583992    7.42014628308338    4.13149921323730
H         8.23879822805147    7.16126920688241    5.20301295724230
H         6.66591975642310    7.69487870942644    5.87594680487404
C         7.08998407533842    5.28501070178040    7.09819458468104
H         6.41689267381743    5.94877892270010    7.62767224290958
H         8.12303804445783    5.58408323406185    7.21984032174103
H         6.95910974209555    4.26402914787464    7.43831447071524
C         5.51813338864601    5.67611994658891    2.10071145878419
H         6.30322797363606    6.35839489275544    1.79375186642263
H         5.01725128168338    6.03150645844163    2.99296580613926
H         4.81770126603432    5.53780670858817    1.28542642306158
C         4.66923775523402    3.30532869491979    2.99430824860851
H         3.96077745648115    3.41705385083513    2.18215668522954
H         4.34108457876277    3.83327189112767    3.88231800161702
H         4.82458806767377    2.25351776722360    3.20537191889045
Co        7.82795992728970    3.97508897005026    3.93316455292040
O         5.21125046937582    5.34515232119473    5.26351705450446
O         6.56196240847669    3.45644734321359    1.17419409611968
P         9.38062299511907    5.01030797673928    2.59654414815983
P         7.82043008314230    1.70887963115774    4.12759052074392
S         6.67903783756998    5.33901562600103    5.31196497521577
S         6.25633863810384    4.04402621541185    2.47817852706347
H         8.81608273784091    3.91425646433962    4.96606026590691

