73
CSD_code = DURTUH | q = 1 | S = 0 | Stoichiometry = C30H31F3O4P3PdS(1+) | MND = 4
Pd       12.35232219347116   11.39076430780841    2.01257967483426
S        14.15652570841551   11.90037140064694    3.64025728048243
P        12.20265577836500   13.76403107489425    1.99365675757790
P        12.15916924096755    9.16840430701263    1.49708092556634
P        10.27512085565574   11.54666882317069    1.38234080334049
O        14.32417786818005   10.66944732479086    2.89180754688709
O        10.25728292073438   10.70826751551030    3.88782889409920
H        10.95371373955224   11.27413236787554    4.28178041684151
C        10.45905603939188   14.24462176039686    1.43022205248520
H         9.84952882501164   14.44178757489900    2.31430798539486
H        10.51631268820794   15.17535897481508    0.86153328849631
C        10.34945580480203    8.85422854352333    1.19894296926572
H        10.20130833256272    7.92411472023620    0.64663416273129
H         9.89529548174102    8.73411849558571    2.18791299001547
O        14.43729399822488   13.08381041344494    2.85856371745641
C        12.47916889655119   14.95392760131644    3.32641882938246
C        11.81708198874563   15.75845873067287    5.49338093513744
H        11.14087660499189   15.73219012881385    6.33437999042102
C        13.58788302849622   15.79312888913775    3.35155309421927
H        14.29879147462925   15.76579135380697    2.54021795463959
C        13.12565159774507   14.24231752129619    0.50656572708846
C        12.70435718004463    7.87541960299400    2.62955550044814
C         9.73389778045802   10.04882865574089    0.46764516849060
H         8.64233593403425    9.98750111065873    0.42800702366448
H        10.11966944618442   10.11991873591784   -0.55448906884358
C         9.41654969050295   11.44673664751516    3.03784844259401
H         9.20375516912021   12.45001229695547    3.42828361043461
H         8.47329265657262   10.89336537687627    2.94974225029310
C        11.60725592256667   14.92360067941669    4.41212542011518
H        10.77633625144123   14.22920426745894    4.42187081460382
C        13.66986436890652   13.22714670811813   -0.27758950020279
H        13.57031191592499   12.17909562075431    0.03618430240411
C        14.34659803924581   13.54019155037571   -1.44337020275190
H        14.77009562550691   12.75305231161744   -2.04911349840081
C         9.82938315915098   13.13671564565902    0.58384106186006
H        10.25941480166156   13.12677888827457   -0.42274255213873
H         8.74410314696413   13.24563383937770    0.49924535063736
C        12.90388337126143   16.61804057780919    5.50146686832944
H        13.07079843473072   17.26664373999906    6.34752843778113
C        13.24273266119864   15.56925449958328    0.10282023294419
H        12.80447961840575   16.35782927680834    0.69859982016559
C        14.48099583327055   14.86429698691967   -1.83062193496957
H        15.01731567136555   15.10989919281523   -2.73418632542270
C        13.00036109437732    8.92150525513244   -0.09042944308806
F        15.33519241690041   10.78060922142360    5.70920075138509
C        13.92680373374110   15.87495845435040   -1.06056143411177
H        14.02824736067688   16.90471436157884   -1.36774319126993
C        13.35822432364436    6.72758922798829    2.19364115073112
H        13.53450286441401    6.56926162594353    1.13885100276840
C        12.50210202496900    8.16154632973606   -1.14463123123602
H        11.55813768419439    7.64450831003229   -1.05529115788932
C        13.78816916937845   16.62957108988417    4.43452018498874
H        14.64569373176362   17.28474961633288    4.45188771170823
C        13.78310970319437    5.79741990707791    3.12567947691656
H        14.28928904140170    4.90260433926535    2.79675537100321
F        15.48912102052637   12.93473926844094    5.67092648079811
C        15.51113969558581   11.83739465077017    4.91711307426217
C        13.22902755583149    8.05619239028452   -2.31840368074926
H        12.84323516128993    7.46347765180450   -3.13381344256700
F        16.70842825471974   11.74058242817056    4.34733365308989
C        12.49590918747692    8.10391930392385    3.98842121378950
H        12.00746862480596    9.01740099994911    4.30854943113278
O        12.92980528765340   11.95260357311666    4.41211738847767
C        13.57054570049480    6.01750845920217    4.47768305241689
H        13.91493010923032    5.29220621139524    5.19880036843055
C        14.44771377934259    8.70280785675783   -2.44782271894842
H        15.00745797018853    8.61436724119033   -3.36611285653709
C        14.23193527966470    9.56785560963268   -0.22132767885034
H        14.63161076379292   10.12656252615928    0.62103726294459
C        12.92884443314463    7.16910278905148    4.90951545626745
H        12.77677948557784    7.34036754768879    5.96406404506213
C        14.95156651159765    9.45478682927062   -1.39718154644920
H        15.90724828547737    9.94737888285992   -1.49339591272014

