23
CSD_code = DURVIV | q = 0 | S = 0 | Stoichiometry = C10H7CrFO4 | MND = 9
Cr        8.00778660460008    8.05536547181964   21.56002132604979
F        10.63931151034028    6.18617976523747   22.04898315300880
C         9.52122054902963    6.41912138348988   21.32904299692050
C         8.31368740134699    5.83136356287555   21.74256744555667
C         7.17039445460641    6.03193360017072   20.97101311247633
C         7.22810867590680    6.81023344998041   19.78448195966324
O         6.07145377896789    6.88133637307065   19.08150384053349
C         8.43317008660344    7.41430578292284   19.40911313133313
C         9.59216892990587    7.22603128279002   20.20087168882798
C         5.94359334485762    7.88785596938161   18.09802466555388
C         8.19402606293235    8.40438863268737   23.34202848740265
O         8.28119916821146    8.69055368351525   24.45490238032301
C         8.61752519020867    9.77132590404713   21.44457389441337
O         8.96253807358427   10.87254997276728   21.42629052796593
C         6.41235844462167    8.90394466903841   21.80831504658196
O         5.43022634266644    9.47922304347345   21.99614431710398
H         8.30873182518923    5.17140679146277   22.60023911310760
H         6.23940141657798    5.53378120046290   21.20550074854049
H         8.51861317300089    7.96388940695398   18.48197169670754
H        10.54782299900562    7.61863905409250   19.87815710963217
H         4.89841438946480    7.86879634190172   17.79605505516552
H         6.57268409866630    7.68290900880401   17.22618532773921
H         6.18726347970524    8.87116564905456   18.51281297539266

