55
CSD_code = DURVAN | q = 1 | S = 0 | Stoichiometry = C12H38IrP4(1+) | MND = 6
Ir        1.73606133387462    5.90082782507348    4.18048496724665
P         2.17849763165184    3.93972379513276    2.93807347873971
P         1.03312652510714    7.32816912344151    5.92325536250728
P         0.69071443354380    7.10849236554096    2.42099835948408
P         3.85498875202271    6.92481651437499    3.86196023667020
C         3.22706527620970    3.80346649395265    1.43330043684358
C         0.66500020520382    3.05746328113070    2.40367971680394
C         2.94590967164376    2.62685332663626    3.95327734578842
C         0.69804532179816    9.13029606951423    5.78266785827627
C         2.09737147117015    7.27577964291496    7.41273115026398
C        -0.54595978438833    6.78249954031688    6.66484849132650
C         1.04850748133659    8.88878181428333    2.14423670254035
C        -1.13486961031013    7.16583619870965    2.55005487536746
C         0.86488521442495    6.53930941563713    0.68502900701195
C         4.58148513085317    7.06542325797104    2.18166212629927
C         5.24056209364673    6.10137223981350    4.72985957990810
C         4.11859195836116    8.65507887482123    4.41571386218683
H         2.31203651598082    5.09052293496958    5.34982956343671
H         0.40553417438236    5.18693287467580    4.45174080879939
H         4.27129619050319    3.93259062388405    1.71213456242338
H         3.10080573189038    2.80839705676206    1.00810499415530
H         2.95802119076532    4.54560592666511    0.68686981711772
H         0.07196817474488    3.66671046097243    1.72618986578150
H         0.93297803764728    2.12272566678587    1.91249780615024
H         0.06828956624927    2.84704714486280    3.28927957768974
H         2.31226090632900    2.44095869075980    4.81801537167310
H         3.04970068230016    1.71467707068776    3.36621866943779
H         3.92445161889075    2.94830337870376    4.30388920412472
H         1.56976640046371    9.66952630873241    5.42102125005015
H        -0.13604849019516    9.29203962481670    5.10214553758996
H         0.42668484721121    9.51292836011856    6.76608087463915
H         2.14704989471732    6.24342850522001    7.75398599212682
H         3.10629496639189    7.61416849087760    7.19030824107880
H         1.66955668300551    7.89985417489436    8.19659083093562
H        -1.34672850565109    6.84675463632404    5.93140979249423
H        -0.44195870301938    5.74423342451152    6.97264657996566
H        -0.78845180731574    7.40264221636769    7.52735530689430
H         0.86661669282106    9.46206155486753    3.04937304789520
H         2.08897263606752    9.01766018794553    1.85052335731631
H         0.40806798656189    9.26787464427826    1.34788283810129
H        -1.52395841223215    6.14905602429782    2.56344951807828
H        -1.41701421742230    7.65182176653121    3.48259112502614
H        -1.56447566960062    7.71208782501453    1.71066352658520
H         1.89988556727258    6.64335285616632    0.36291401869018
H         0.57160116240091    5.49545141054421    0.59865894150522
H         0.23044373818558    7.14333011172717    0.03625016057392
H         4.76480452365174    6.07643123848696    1.76988957392600
H         3.90249630092616    7.59876260261858    1.51860435398174
H         5.52510119387987    7.60828057597294    2.23574338495286
H         5.02638516226181    6.06082823106113    5.79647854345227
H         5.33836562566652    5.08114198357978    4.36228134508665
H         6.17363537658040    6.63884036700047    4.56246978262983
H         3.49088811007794    9.33093528882990    3.83785801137000
H         3.86812324821520    8.75527825863854    5.46947843482008
H         5.16346979321213    8.93016772158721    4.27134183219372

