43
CSD_code = DURWAP | q = 0 | S = 0 | Stoichiometry = C10H24Br2CdN4S2 | MND = 4
Cd       16.41313540482792    6.70652321519747    2.54623252589969
Br       18.57212687041201    5.41665341317991    2.92012132150057
S        15.78250387323390    8.61765038756421    4.52377395003936
N        13.37061280817423    7.58024853190686    4.70490541421598
N        13.65012193932340    9.24451441468970    3.09038140397560
C        14.15719236846725    8.44385430768167    4.05341728692797
C        11.92649279533190    7.61732396050312    4.67569417272002
H        11.57588412541374    8.57610292134689    4.30479999648337
H        11.56455500595710    7.48655593268997    5.69746522228524
H        11.52283409119499    6.80849717190505    4.06207302500749
C        13.90363402866001    6.55886686333743    5.57588822521654
H        14.96707828492269    6.40500900523554    5.38472385930388
H        13.37220361365835    5.62550679690222    5.38629889590329
H        13.78087115589802    6.84319271496327    6.62403796439409
C        12.75900940057015    8.75289988470778    2.05406076078828
H        12.49320734855189    7.71415801852083    2.21894463620070
H        13.27731116604573    8.81173802910029    1.09242651514572
H        11.85744243938117    9.36639395538480    1.99987280568806
C        14.39964206629388   10.41104969610495    2.67539268534135
H        14.88347830183324   10.86558839220162    3.53750257595262
H        13.70158056907740   11.12316037644076    2.23719252578788
H        15.16182166607084   10.15747510930139    1.93021961078426
Br       14.25413269099998    5.41654898048284    2.17205932081164
S        17.04343466839940    8.61759436925300    0.56851996502633
N        19.45528720560126    7.58021410683125    0.38706855362875
N        19.17598606437940    9.24446414521194    2.00166715937435
C        18.66879566310308    8.44381423406370    1.03870477809242
C        20.89940566084104    7.61744981346115    0.41588939145521
H        21.24998550046128    8.57629906129440    0.78663615265007
H        21.26106513659652    7.48665966501595   -0.60597298238322
H        21.30327766383768    6.80869240682515    1.02945767292431
C        18.92214331327051    6.55876654114673   -0.48376947019707
H        17.85877740365054    6.40479856350629   -0.29229459988015
H        19.45375609752542    5.62549276836037   -0.29429068936678
H        19.04458479397247    6.84308048939729   -1.53196291827807
C        20.06745183591955    8.75289202236677    3.03772626691891
H        20.33322912463765    7.71415910838838    2.87277923388588
H        19.54944857926384    8.81172352751403    3.99952006907879
H        20.96903732069539    9.36637489791913    3.09167316833410
C        18.42647429989021   10.41090629894497    2.41686134536656
H        17.94246637793266   10.86551476696980    1.55486514482819
H        19.12451930625395   11.12306937756173    2.85501761214450
H        17.66440196948333   10.15722175659221    3.16211944605476

