26
CSD_code = DURZAS | q = -1 | S = 0 | Stoichiometry = C12H5ClN2O5Re(1-) | MND = 6
Re        1.96281407800604    1.20932257962387   10.19166610489096
Cl        4.17181400929930    0.68065600055262   10.88009564521917
O        -0.78842828552395    1.85726854190319    8.94085894003740
C         0.22990718878189    1.59995695790852    9.42108587690059
O         0.91581635970201   -0.28604544796994   12.68074110577916
O         2.10616426341181   -0.67934870937589    9.07420087677366
N         3.07851249059881    1.72781400426975    8.35979601151462
O         2.20213476041153    3.85993621538421   11.76401419214079
C         2.07970832433633    2.88190757751823   11.16045448134769
C         1.25104801518034    0.31984993593496   11.76702544844992
O         3.31832321798174   -1.68080679293636    7.49618364525218
N         5.18847549109185    1.84738788837835    6.50227360270627
C         3.54002986271783    2.92746478428496    7.91379025847869
C         3.45057810033755    5.33336767156202    7.89764011993035
H         2.99786235163511    6.25534138422936    8.23191195987869
C         2.95689479087486    4.13565442209022    8.33842746451238
H         2.11010476725020    4.08814862825527    9.00941604102558
C         3.60636234071497    0.64543788354610    7.82044907484876
C         4.65921080902181    0.72059347183181    6.88511465653422
H         5.06351032204985   -0.20052018247899    6.48781899809567
C         4.62191327520569    2.97454982965742    6.98959296763085
C         2.97575827854365   -0.71801451706362    8.17133298238520
C         5.11295840477623    4.22332293069337    6.56411112576725
H         5.94085219417185    4.22650452145424    5.87177203848090
C         4.53954703876824    5.38000203398733    7.01494683979027
H         4.91742755065349    6.33814838676436    6.68737954162466

