88
CSD_code = DUSGUV | q = 0 | S = 0 | Stoichiometry = C41H39ClN4P2Pd | MND = 4
Pd        8.20497554750416   11.82657709484088    9.17734005410201
Cl        7.81584645542628   13.29190740731878   10.92272166990331
P         9.77605439730222   13.15998708665422    8.26179137689178
P         6.53522051028893   10.67845715372035   10.16199043965502
N         8.93066618090899    9.52036011475043    7.21871243590516
N         8.44986623290929    9.26216500092676    5.98496598517354
N         7.60557565541469   10.16170953171114    5.70864755962342
N         7.48771592758014   11.03125388187860    6.71830366123606
C         8.31027929027446   10.63236442626877    7.66336931799482
C         9.89499281611079    8.65500994738951    7.86860919723342
C        10.47309519945759    9.38084492233949    9.08442952136749
H        11.00238908130982   10.28313484964126    8.76880647751738
H        11.17473522957730    8.72899999261353    9.59984717671063
H         9.66841291336799    9.65440192398910    9.78437664585302
C         9.17258178679441    7.37441411661325    8.30054288202310
H         8.40057983772241    7.60152985890468    9.03352227580079
H         9.87848414867657    6.67377847337711    8.73856890587395
H         8.70091283006139    6.90789880585814    7.43898368084285
C        10.99804040481635    8.33032374663417    6.85954736700361
H        10.56197440872616    7.86760745518266    5.97826802503770
H        11.72096470343380    7.64979375914947    7.30126972502971
H        11.51001660988148    9.23984105411310    6.55242605603596
C        10.98722783815001   13.63934354703595    9.52935026808221
C        11.10023754554522   12.80679516912904   10.63946391455555
H        10.44334558892494   11.93893296394835   10.72649957455660
C        12.01115262829862   13.10225606825255   11.63622861292336
H        12.09355812500483   12.46070170109779   12.50124391082261
C        12.80873054508107   14.23030154418268   11.52926130100562
H        13.51637972476451   14.46642938411240   12.31039262538983
C        12.69297786644430   15.06387248179544   10.42831502513451
H        13.30954781344823   15.94777511441637   10.35290759917600
C        11.78454369796726   14.77279698516095    9.42660361688298
H        11.68518247715032   15.42759219553778    8.57228948998624
C        10.80559819646412   12.52183452763267    6.90501462626884
C        12.13105296701378   12.14141742961716    7.08382548751682
H        12.60982529898810   12.28679151463197    8.04362016466777
C        12.83785587059105   11.58406692250310    6.03144805034222
H        13.86895268295779   11.29369437223552    6.17342296307511
C        12.22409645228553   11.39044982898529    4.80476348297220
H        12.77539306868841   10.94395494597627    3.99064379760207
C        10.90102532668272   11.76430137856568    4.62346810781171
H        10.41642378995822   11.60619066739147    3.67212679523367
C        10.19503802081607   12.33112506388948    5.66652623597125
H         9.16074927895099   12.62160828341412    5.53443548649926
C         9.15951067506795   14.72046003433067    7.56651275535899
C         9.86314977460538   15.42653724805493    6.59357465570380
H        10.80036144655964   15.04167062302103    6.21396083647521
C         9.35237270520547   16.61344902280454    6.10180247616150
H         9.89978504980789   17.15995942635345    5.34737713014160
C         8.14178148618830   17.10005865892701    6.56973456906160
H         7.74724135797888   18.02616045559452    6.17794876275751
C         7.43899743805143   16.39854837259520    7.53498970483909
H         6.49576016022336   16.77666391083929    7.90100459366607
C         7.94428413547763   15.21129022447093    8.03346342282777
H         7.40923395124633   14.66884018487938    8.80561043161050
C         5.02793941594026   11.54138732541978    9.64030516741056
C         5.15485966472027   12.57189272585423    8.71226161067637
H         6.14368081621427   12.82780200622592    8.31164289721355
C         4.02781482789076   13.24286944129687    8.27132796649389
H         4.12526142062134   14.04251874880989    7.55191284863970
C         2.77717015938090   12.88328458437595    8.74591122376543
H         1.89810755570794   13.41127559124489    8.40631375446129
C         2.64606556528315   11.83404530989727    9.64280310041784
H         1.66682741103482   11.54131352984108    9.99334774161411
C         3.76601371177368   11.15514312712543   10.08534690677983
H         3.66663450872145   10.31769333598466   10.76391334033713
C         6.07442055898067    8.96433384734990    9.74022231311676
C         5.68104735069313    8.72954656446565    8.42340181290852
H         5.62886409769329    9.55760810446074    7.72791105634102
C         5.36326295985580    7.45109926249847    8.00940786685448
H         5.06804505144008    7.27789523779221    6.98548168948684
C         5.42929010833642    6.39606797813957    8.90685900892958
H         5.18254565250921    5.39561139793944    8.58392106697396
C         5.81015243359731    6.62525500482787   10.21810818739859
H         5.85661036308866    5.80517872598403   10.91997103035825
C         6.13713549677226    7.90412233541562   10.63695507523510
H         6.43667980505223    8.07800514246417   11.66158857328368
C         6.60359398278976   10.67680999992183   11.97557850669940
C         7.76289944828886   10.14138655286223   12.53396963849081
H         8.53493488397574    9.74909833278805   11.87691824826340
C         7.93819294103838   10.12947417858825   13.90337200024051
H         8.83952226565899    9.71429694091693   14.33092714463288
C         6.95964399255129   10.66521947150710   14.72600411779458
H         7.09608237085327   10.66414753105858   15.79741971250864
C         5.81882462618813   11.22144141572871   14.17343228783963
H         5.06792859434981   11.66035609571080   14.81416802679654
C         5.63718395275189   11.23282118479321   12.80109993919418
H         4.76041085367534   11.69756811329835   12.37512522692338

