60
CSD_code = DUSPEO | q = 0 | S = 0 | Stoichiometry = C21H36N2Ti | MND = 9
Ti        8.05271699810648   -1.08065639582764    5.47065812092935
N         8.69410919783519    0.24255106734097    7.10371144191987
N         8.42174187341039   -1.93316943291858    7.27943195969396
C         6.47470136542595   -0.63965270128927    3.77163983990631
H         6.69933694396964   -0.60514326833494    2.71118269780700
C         6.42836831316937    0.46725869152832    4.64191404920066
H         6.61715938889347    1.49541655425849    4.36236776358519
C         5.93305457859804    0.02477256791863    5.88250592615732
H         5.68590700966389    0.65058455418424    6.73069307880183
C         5.66590719890354   -1.35160960922676    5.78209438486497
H         5.16355558489488   -1.95283356652003    6.52923799110842
C         5.99637883318300   -1.76664317893534    4.47867393956505
H         5.78880053727354   -2.73948915012052    4.05015995006308
C         8.35479008025335    2.64604926400460    6.75698778922467
H         7.28116475644527    2.51275392525009    6.90054820433790
H         8.57164881298678    2.54089807811345    5.69265367622451
C         8.77284539385833    4.03537000283033    7.23134229737816
H         8.22962437345411    4.79613863848640    6.66643004696260
H         8.51093376312471    4.15453206268586    8.28607252438778
C        10.27552138001657    4.23514962141978    7.05967577224985
H        10.52912459687978    4.18122861688861    5.99865588274190
H        10.56409789599279    5.22362850695737    7.42378070982470
C        11.04362313554059    3.15614529265001    7.81654852806709
H        10.84288652047938    3.25237218526355    8.88714764916316
H        12.11756091070188    3.28773525893455    7.66637290542153
C        10.62190914647745    1.77006603656822    7.33907498068743
H        10.85552936990203    1.65976485658552    6.27896348589091
H        11.17482199799173    0.99795978973221    7.87976831044744
C         9.10976582098625    1.56194872270322    7.53241468066000
H         8.86797914015147    1.70877795311494    8.59958508556920
C         7.21864518463818   -4.04585897269433    7.63345011111429
H         7.18979005687065   -4.21542342148526    6.55522723601659
H         6.31875975759943   -3.49374447721803    7.91548757083622
C         7.25076577220311   -5.38241827228896    8.37092679163441
H         7.19910950390000   -5.20468109560368    9.44853603389105
H         6.37918022188429   -5.97793786496606    8.09061926947799
C         8.53018176608882   -6.14867486731596    8.05040536403958
H         8.55997383118651   -6.37480827156399    6.98242070802146
H         8.54259746886532   -7.09517173525217    8.59506694881844
C         9.75202825222166   -5.31531383293285    8.42342201912904
H        10.66576739214473   -5.86301440149569    8.18297158553601
H         9.74853813937725   -5.12909846200996    9.50080193957523
C         9.73257360555455   -3.98847159215987    7.67106925390991
H        10.60398050804117   -3.38461726960413    7.93932623365519
H         9.77769355301395   -4.17521204953962    6.59792439422115
C         8.44932780026894   -3.20045214118092    7.98369495147298
H         8.41298438645699   -3.02880943843241    9.07075872432614
C         8.79068767873040   -2.78697823598162    4.48799740270288
H         8.65715630860940   -2.70308676284969    3.40267430482408
H         9.86156869635557   -2.94892777145766    4.66259030654621
H         8.26747420813398   -3.69822428084395    4.79335293580797
C         9.59314957264432   -0.13553562548401    4.40851945382340
H         9.64338377906048   -0.42686404131091    3.35298449801296
H         9.45159950659473    0.94909954857919    4.43075034968632
H        10.57391095962943   -0.35415768326948    4.85365245946722
C         8.82996184026142   -0.81323768113629    7.86844997722446
C         9.35484300672367   -0.79652357369671    9.29430416060003
H         8.54112135728165   -1.00917399838773    9.98880285324353
H         9.78247971606616    0.16566465047993    9.55398467658054
H        10.12520125069815   -1.55495132368502    9.41813381308003

