61
CSD_code = DUSPOY | q = 0 | S = 0 | Stoichiometry = C20H38N2Ti | MND = 9
Ti        2.53284763153466   10.43266819998673    0.54102117189899
N         2.55424494704576    8.59311864300283    1.54477728093697
N         0.66529392059996    9.60060800065644    1.08571973346935
C         2.38190700271430   10.99622689193034   -1.76304753611803
C         3.62772127776814   11.46508886995205   -1.25550030253195
C         4.41249692970804   10.33449761342936   -0.89303958060780
C         3.64552414965284    9.17465966908147   -1.16084874014084
C         2.39257847156916    9.58009405415782   -1.68873236109018
C         3.46995894622067    7.77804374500653    2.30776421188837
H         3.45913005636763    8.03301177591187    3.38186900149445
H         4.47652217691363    7.99340689398291    1.93455599424834
C         3.22541533586519    6.27150163432578    2.14876687555168
H         3.21348023379680    6.00581391707118    1.09504772818167
H         2.27952046275129    5.97042631825607    2.58930676246972
H         4.02366114568373    5.71760415087625    2.63832686640654
C         1.29430473115116    8.77105065612693    1.90195158363162
C         0.69573225201839    8.09199516435321    3.11930063670732
H         1.46363031902418    7.95681548379215    3.87896139055957
H         0.29967109462468    7.11310317212100    2.85479950019892
H        -0.10233676304628    8.68570468166372    3.55191665369653
C        -0.77398805554535    9.83578760031549    1.08021396016634
C        -1.22708773795552   10.81573731634289    2.18073444727034
H        -0.83472786056843   10.53923101147243    3.15641141809462
H        -2.31385916457940   10.83055797729276    2.23586218353113
H        -0.87706644199132   11.81859408211417    1.95304576150030
C        -1.58499254555954    8.52535553372957    1.17669720937305
H        -1.07817913164635    7.73390128405754    0.62746628529924
H        -2.56613421552909    8.67565887686097    0.73078447472489
H        -1.73695650165679    8.20147972622245    2.20094507290727
C        -1.11736493670329   10.46165588051738   -0.28148659828877
H        -0.46130456626176   11.30387747724228   -0.47816555852381
H        -2.14987542963864   10.80562707386757   -0.28707367301310
H        -0.99006264380012    9.72452913979273   -1.06964700120455
C         3.94130629593933   10.92992996062528    2.02627432031211
H         3.46817260774935   10.90026634980626    3.01892670159874
H         4.37328848288328   11.92900894661430    1.90657990294149
H         4.77371391516545   10.22104738961750    2.04363081136571
C         1.74827241187900   12.31114718391360    1.05461384940138
H         0.89352087053126   12.60205909924913    0.43479053481341
H         2.48504525628852   13.11569282847411    0.95899107837443
H         1.40872342036507   12.32431735039913    2.09878718031048
C         1.40523104528548   11.85700421082835   -2.51601911782890
H         0.47545161047222   11.32949091462560   -2.71559042428176
H         1.84141051026062   12.14482540065158   -3.47683408322426
H         1.17263931542595   12.77329420204930   -1.97365306570335
C         4.14447001834537   12.87122465160280   -1.36865378591909
H         3.32770677972197   13.58922458195450   -1.40668840299360
H         4.73056599129527   12.97788125186230   -2.28597623256526
H         4.79076263581049   13.12413475725620   -0.52845634687397
C         5.88072147603651   10.36932798601823   -0.57863664410945
H         6.14190379595296   11.25577017310922   -0.00360527764322
H         6.45584257980435   10.39098995212809   -1.50884406260399
H         6.18903764065642    9.48908829053811   -0.01698506414019
C         4.14380170915730    7.75967884143283   -1.15475124846691
H         4.93282911275890    7.61544085566208   -0.41968670434119
H         4.55338371864024    7.50763650932524   -2.13793721524571
H         3.33409846331974    7.06468939573038   -0.94029936702744
C         1.37945599325380    8.62121025195520   -2.24916344843088
H         0.95088360138181    7.99398234897048   -1.46434288662867
H         1.85595289344596    7.96492636037864   -2.98131988797948
H         0.57230275764197    9.14967743970989   -2.75205596579583

