46
CSD_code = DUSROA | q = 0 | S = 0 | Stoichiometry = C15H28N2Ti | MND = 9
Ti        2.52190494754289    2.55879421942285   11.17540519920497
N         1.84594614147071    4.42394754111021   11.15479385533821
N         3.93664713951682    4.18286092728170   10.55417498276401
C         2.96205339636380    0.60028478707341   12.42145624081653
H         2.86794470242166   -0.41458642844579   12.05059565677136
C         1.97765025018619    1.30877289708152   13.14544966551203
H         1.00300609966627    0.92808835802671   13.42289918895757
C         2.54730206294361    2.51674964673696   13.58769909093612
H         2.07803779542783    3.22736212529010   14.25752331639145
C         3.88345929059638    2.55407862063368   13.15048846434326
H         4.61245916606606    3.30733427959254   13.42213948724492
C         4.14296301731580    1.36893454988940   12.43412314816445
H         5.11043429187292    1.03627229491176   12.08068041069800
C         0.64099339357714    5.15134557639516   11.47899719199302
H        -0.14289181067902    4.41590155904568   11.68447007500193
H         0.29277484926326    5.76853002349712   10.63436341735431
C         0.80671462394534    6.03390906753233   12.72290425180017
H         1.52966959132131    6.82694373093465   12.55071949378094
H         1.15340657717653    5.42724713581689   13.55723996513281
H        -0.14598548756125    6.48552996722524   12.98990776120721
C         5.25407755400732    4.49400270737504   10.01524610526340
C         5.84959900211524    5.79464505682560   10.59368948200633
H         5.51015764707405    6.68058265704099   10.06748273364174
H         6.93426746112862    5.76228751155290   10.51722001460770
H         5.58449757340383    5.88567407081746   11.64535437925067
C         5.23994095820375    4.54447405137566    8.47681098164712
H         4.91145015421865    3.58609795795013    8.08188969461657
H         6.23994770272397    4.75503391654788    8.10364541840472
H         4.56590779588993    5.30980188206200    8.10089145973983
C         6.19245162452811    3.35205403525074   10.43985127462516
H         6.30154903008404    3.34050883958775   11.52137641632985
H         7.17456054360993    3.48772562222987    9.99156616888828
H         5.79170227543477    2.39536178788160   10.11634115728609
C         2.99766947054814    1.67944405624622    9.33843819772212
H         2.71484958037364    2.33916166013884    8.50546327634321
H         2.49801354868409    0.71818865429422    9.17038495088000
H         4.07373863926737    1.48965717902577    9.25704629880097
C         0.55336104298298    2.00292407691958   10.67842046232265
H        -0.14485881349517    2.26535493854724   11.48054455196722
H         0.45815392174747    0.92327182529938   10.51932189710243
H         0.20452849597572    2.49982781237985    9.76404620707050
C         2.91960399609563    5.00496940555146   10.61697459751434
C         2.89674865500472    6.45122639826777   10.16242995414294
H         3.50457170421859    6.59274158074322    9.27538249262500
H         3.27637220963398    7.09941156200447   10.95044258743890
H         1.88114818811703    6.75866987503134    9.92550837634697

