33
CSD_code = DUSRIU | q = 1 | S = 0 | Stoichiometry = C10H20N2Rh(1+) | MND = 6
Rh        3.23408729673821    1.29368002402955    5.85918410660617
N         3.74632133951916    0.34935930573012    3.98878931965329
H         3.00194142429879    0.28944999221678    3.29427176893889
H         4.01230010823261   -0.61092928911947    4.21958682135377
N         5.20355678181092    2.12362928108210    5.57688210274492
H         5.78601648463879    2.19702136967886    6.41079818382315
H         5.06508034896067    3.07553277778829    5.22916619217046
C         2.11594273459457    0.73410149395514    8.65567686166769
H         2.59059989473940    0.35307348873057    9.55988796204969
H         1.22950914245042    1.28574755277324    8.96399401803841
C         1.73444949855956   -0.46043682505159    7.76171162695290
H         0.75907349238302   -0.85586683373496    8.05781483972150
H         2.46213279669778   -1.26191785191288    7.90797602848956
C         1.70461664793562   -0.11984563448964    6.29254279920455
H         1.83119489436265   -0.99115473341436    5.64662736108460
C         1.11353049484336    1.01211867295459    5.74380218348897
H         0.85061782919561    0.98183571744680    4.68509468320668
C         0.34138679419435    2.03127311453289    6.55007987714516
H        -0.11232715098799    1.53862731544857    7.40831958087295
H        -0.46931845133748    2.42675088921519    5.93817312760715
C         1.23325871936895    3.20343142186014    6.99952964261059
H         0.82665485587845    3.65992078387609    7.90600160854352
H         1.22835728597974    3.97290219134148    6.22422549023679
C         2.66550591101496    2.80082630870080    7.24838591696434
H         3.36563391037664    3.63560650274510    7.17489207586974
C         3.07039662531219    1.67740779321029    7.95984784954608
H         4.08296831780374    1.67523928454701    8.36678540497505
C         4.91340807026799    1.04362608661014    3.41685100676738
H         4.57357047769843    1.98461366424777    2.97387757664681
H         5.40003338543895    0.44961400337723    2.63497320307504
C         5.89954490954080    1.33484715353275    4.54509061629262
H         6.23218605471031    0.39427290852134    4.99445114456484
H         6.77766907478357    1.85964206956890    4.15200901908578

