27
CSD_code = DUSSEP | q = 0 | S = 0 | Stoichiometry = C12H13MoN | MND = 12
Mo        4.70156017748531    5.55037246290072    6.08943654807287
N         3.65591720500191    5.89080278899756    7.97249707921343
C         4.76988502089330    6.34983962070578    8.03976556990176
C         5.62728370342981    7.06123662273161    9.00669716237706
C         4.65857365255202    6.32117435244974    4.00224280844892
C         5.42834120635337    7.25837912413092    4.76108059093762
C         4.55772787172926    7.86656462403462    5.68435040647222
C         3.24918878890412    7.32840741511987    5.48754692335964
C         3.30090162000355    6.39071389066413    4.45035718506425
C         4.49154291724324    3.28247354861265    5.69352292260811
C         5.59637444359094    3.84340341214522    4.97702901738341
C         6.58033761497793    4.26062086812199    5.92806886214696
C         6.06839949029291    3.98892820591021    7.20973268663686
C         4.78151552372277    3.38769082455549    7.05897044933554
H         5.09867933909431    7.93156482052907    9.39569021566353
H         5.85336995350198    6.39743205829182    9.84132737032611
H         6.55825438941886    7.37884598162785    8.54223779348652
H         4.97017296840302    5.89872777494846    3.05326252744372
H         6.44373342014962    7.55624471511535    4.55395107342651
H         4.78675593152980    8.72252542284225    6.30997773970780
H         2.35359122007130    7.68343609720459    5.98587138894134
H         2.45819822405264    5.90001874750500    3.99167238302803
H         3.65222147413713    2.76567866394867    5.25800370317099
H         5.79507104108318    3.67179682714765    3.92479065271792
H         7.58609713350230    4.57500382345946    5.69938278544782
H         6.61758143612118    4.05128655549270    8.14268801680746
H         4.19302423275447    2.97543075080663    7.87174613787380

