69
CSD_code = DUSSOB | q = 0 | S = 0 | Stoichiometry = C22H40FeI2N4 | MND = 4
Fe        6.49219434690872    4.16300225933059    5.78521252654847
I         7.09037535706683    2.85075998051681    3.74181237236245
N         8.84792044574221    5.53701816273403    6.90833425105605
N         7.03745792939919    6.52736126694659    7.55931764763577
C         7.49820199998259    5.50646684291698    6.79288707973722
C         8.09761037072264    7.20071255968178    8.13836228301849
C         9.23540980380467    6.57300396860948    7.73256562983993
C         5.61810664397473    6.73759910382508    7.78926685079114
H         5.13520626602971    5.90512783383790    7.26079290541985
C         5.09608808662269    8.03279398620111    7.16810745122283
H         5.48956228703572    8.91607583270686    7.66306668673660
H         4.01270268059910    8.05650131401402    7.25589171883175
H         5.35416968720545    8.07996465507698    6.11397850567464
C         5.26124034009515    6.62217531450699    9.26932480591388
H         5.70488083253574    5.72264188271184    9.68883114021590
H         4.18205435713319    6.54605737691888    9.37349349583735
H         5.59905563585568    7.48304202999966    9.83751528847123
C         7.99767001941004    8.37412864526777    9.05071809347040
H         7.88132406029760    8.05149446965580   10.08621175928586
H         7.16114533142993    9.01591970288874    8.79409125339207
H         8.90701518751657    8.96663278900949    8.98145543618075
C        10.64143512265339    6.92880536999825    8.06598626984611
H        11.12878141301694    7.42516173770999    7.22611408445516
H        11.22198546312820    6.04939199814692    8.33064231895338
H        10.65301814262529    7.60501829301422    8.91642365582781
C         9.67813686164833    4.50282705933434    6.31373896524716
H         8.99424395175175    3.95145954128012    5.65119014223036
C        10.80710370276052    5.06481320446597    5.45526031147075
H        10.44498778898776    5.88995194291690    4.84563092469070
H        11.16840340722202    4.28459453624468    4.79044926361411
H        11.64212296464021    5.40895921023419    6.05797217737663
C        10.17485775815173    3.51663194767415    7.36871011812195
H        10.88437409400998    3.97387703667358    8.05338680258464
H        10.66271919469821    2.67923467898256    6.87718013595608
H         9.33538488400537    3.13484065545858    7.94571184326350
I         5.88949663307826    2.85655974863328    7.83070193549997
N         4.13359902181688    5.53515745081563    4.66338229311898
N         5.94355142044949    6.52562080145441    4.01100011880620
C         5.48343284096136    5.50418409572847    4.77717103497892
C         4.88282352219898    7.20003722062707    3.43421577180862
C         3.74538078314100    6.57237516133842    3.84105241730207
C         7.36259172746565    6.73412273551722    3.77749909987176
H         7.84599073753118    5.90107703072377    4.30470933234562
C         7.88822166693761    8.02854092286176    4.39721572275491
H         7.49173592758224    8.91256758693962    3.90603063183398
H         8.97105828568865    8.05243202155595    4.30285969269894
H         7.63651273067658    8.07418903999034    5.45295912666495
C         7.71499459062885    6.61790056549505    2.29640633327089
H         7.26964639615223    5.71831650584261    1.87879024510837
H         8.79381340350558    6.54127061230991    2.18891370423449
H         7.37564000577696    7.47852323881397    1.72876252405736
C         4.98148401027242    8.37444603046848    2.52292619762143
H         5.08937021841639    8.05279083730052    1.48619151034250
H         5.82239740834996    9.01238542348307    2.77456426860302
H         4.07509710488941    8.97066127777968    2.59921073839589
C         2.33903107716050    6.93010468731930    3.51112025464177
H         1.85331769253009    7.42330604860761    4.35378761050840
H         1.75751540315366    6.05212953087583    3.24382778076793
H         2.32652867559621    7.60981763838805    2.66350262951117
C         3.30399625705612    4.49921142281789    5.25581480338255
H         3.98894944437906    3.94492523335253    5.91469699599392
C         2.17713659330675    5.05846000801066    6.11879162602246
H         2.54139104452413    5.87968185744987    6.73242366507449
H         1.81554187020142    4.27523530193350    6.77988119504678
H         1.34187534943281    5.40718486586554    5.51906042102594
C         2.80461886380588    3.51731798369262    4.19807929571333
H         2.09281927284721    3.97707101813963    3.51747237048452
H         2.31854594856731    2.67766696465734    4.68751456740723
H         3.64254765324708    3.13828194174780    3.61702988983882

