35
CSD_code = DUSSAL | q = 0 | S = 0 | Stoichiometry = C14H14Cl2N2NiS2 | MND = 6
Ni        3.15878685902147    2.94388962588543    9.83307289871133
Cl        2.07878234291197    2.45786997772958   11.56985858089270
Cl        1.83188152871245    1.88252365087693    8.64898703494761
S         1.99731162357277    5.29630211283225    9.30413913289076
S         4.94298916632171    0.95740907425702    9.89757386593221
N         4.29788267070602    3.47679909366882    8.07836317301704
C         4.95439458761750    2.45150768786817    7.53143972642256
C         4.90399729844187    2.19246765446128    6.16746741932869
C         4.17405744343552    3.03828109162032    5.35162394698710
C         3.58781714545506    4.15972634724881    5.91084183626601
C         3.68183861904430    4.35427227370746    7.28308241627146
N         4.47615789234435    3.97363910946196   10.82194865895320
C         4.35971727525112    5.30283238816058   10.81774997744566
C         5.47224891260385    6.12880592039867   10.93568328297222
C         6.72263591151727    5.55664758832264   11.09332920277027
C         6.81652179984399    4.17855458769757   11.18169910330505
C         5.66278005892165    3.41200412240168   11.05931123178418
C         3.13670008969558    5.60737228255883    7.90071307244692
C         2.99007505174411    5.88853125213851   10.72648280590700
C         5.71762250490257    1.93126799078381   11.24198002209232
C         5.81584873417747    1.60538746936098    8.42113433479582
H         5.41549992614905    1.33430246189334    5.76195554959406
H         4.08060156421073    2.83791784425142    4.29536942856738
H         3.05099655082188    4.86845712122482    5.30089427936658
H         5.35344870586325    7.20084900275984   10.91113772058722
H         7.60481299034133    6.17403976156377   11.16651126189507
H         7.76767544965806    3.69871222685863   11.35172928054666
H         3.95271508084486    6.21936489178742    8.28701077235162
H         2.57457053208732    6.17624596024529    7.16166704480992
H         2.39767364654102    5.55472610374292   11.58303956627249
H         3.02373594528963    6.97773889735501   10.69917945545524
H         6.74228722588989    1.58501802329920   11.37781707998353
H         5.11416314606366    1.65498509099250   12.11110453930469
H         6.18381158207500    0.73953978222618    7.87269119801020
H         6.66146013792128    2.18951153035875    8.78661109911511

