51
CSD_code = DUSTES | q = 0 | S = 0 | Stoichiometry = C21H22Cl2N4OZn | MND = 5
Zn        0.70616461335175    1.83211300189002   11.33959555233915
Cl        2.77911165056192    2.17793522040145   12.16776787798163
Cl       -1.16389620090622    2.29598892241282   12.44237464977307
O         3.09927194175560   -0.82657094939753    8.91049137669825
N         2.69999872873680    1.90889817659852    7.46100669589809
N         1.62710132094776    1.03642121079955    9.32444885277244
N         0.66475537179606    3.47037669581803    9.96069040239319
C         0.84054556581195    0.66135962093418    8.15079995359269
H        -0.04435098753823    1.30052937796291    8.10871987506773
H         0.53090275714056   -0.37992201804005    8.21523234995024
N         0.54902111736484   -0.31058514165843   11.38240320233189
C         4.20841552175035    1.65623012236829    5.59727091276971
H         3.48928080516441    1.04019283623084    5.08178235127091
C         1.78118049868433    4.53324171854105    8.15547683650022
H         2.52209814410539    4.47928383072765    7.37401059473809
C         2.39645194634939    2.17575585366420    8.85272387748766
H         3.29283316805822    2.29437100987958    9.47250557295907
C         3.91388583193524    2.16815153465099    6.86591668534516
C         1.57360112849972   -2.33326481643326   10.67440304025692
H         2.32846318531928   -2.81104788531287   10.07140940992408
C         4.86568295773291    2.99207938052489    7.47952876141467
H         4.66954429793783    3.43202058051084    8.44557849268490
C        -0.06805179263319    4.56107649778245   10.14513062247714
H        -0.79276681231539    4.50689406149982   10.94569126725281
C         1.57245942567099    3.44456763402959    8.99237996473705
C         1.76338573792013    0.92724349389657    6.95195211506722
H         2.28279175662626    0.00895162549312    6.65700275871063
H         1.20828958950550    1.31992950440590    6.09345983735239
C         0.07946720968993    5.69279347780162    9.36291473538802
H        -0.53052400291793    6.56232782046657    9.54648318109546
C         1.46417425336187   -0.95047755793974   10.66171770345662
C         6.06922413586645    3.26146231647593    6.85777864739469
H         6.78707522409311    3.89557263485648    7.35697832581819
C         5.41444566919303    1.93731967835695    4.98591563875218
H         5.61678405674087    1.52666108016878    4.00736178852357
C         1.02503593010556    5.67708213222452    8.34918980330819
H         1.17270551370586    6.54030038777293    7.71758609395249
C         6.35723603675849    2.73562371909287    5.61007114066814
H         7.29807550728848    2.95204345785794    5.12852473218520
C        -0.25518843199498   -2.38568636784918   12.20816751544586
H        -0.95495018241643   -2.91539360492191   12.83408308111616
C        -0.29183465408217   -1.00344100710562   12.13715941679914
H        -1.01258023451418   -0.41782168601027   12.69072124434510
C         4.50133477265595   -0.65097622353753    8.88719174712389
H         4.88011585633119   -1.37335251359731    8.16605954570008
H         4.93867410905479   -0.85194897756640    9.86996279160549
H         4.78679465013951    0.35511545718581    8.56680473802265
C         2.40757628891233   -0.06851840179240    9.87346062860315
H         3.10446421646656    0.37389833076675   10.60244052313280
C         0.69686830978862   -3.06191421786464   11.46131159570565
H         0.75825449644429   -4.13959103503383   11.49036149210391

