54
CSD_code = DUSTOC | q = 0 | S = 0 | Stoichiometry = C22H24Cl2N4OZn | MND = 5
Zn        7.70049615763666    3.45580614979607   13.23306152034023
Cl        5.81506428081720    4.47830608363414   13.79961401587890
Cl        9.46802617750406    3.17471654327264   14.61199490928433
O         9.78734074274378    0.20666730783991   11.32412939755445
N         6.91350580363351    1.44933186366100   13.09270116264518
N         8.84666591803829    2.40560319294669   11.49741268787062
N        10.58999525816573    2.86362303195173   10.03242181552639
N         8.54485376531172    5.02346003414158   12.02243253283451
C         7.45180240972485   -0.78940330191588   12.50601423078734
H         8.16611400122125   -1.47317416104844   12.07681691660122
C         5.34696595006734   -0.28390881705516   13.51239068319110
H         4.38186082820414   -0.57644305641560   13.89318518776001
C        10.02651557766710    3.23472104036553   11.31553873625804
H        10.71815732118915    3.07260443403646   12.14984262396223
C         7.75947374038690    0.56088801563029   12.58085500056018
C        11.93161918550013    2.63637595111791    9.81856511039158
C         9.09419031994620    1.11741280511179   12.13858296322664
H         9.65980422822905    1.33262780374743   13.05876899120278
C         8.87543169358722    7.31142888878150   11.47940720556726
H         8.54232995436604    8.33294521335490   11.56626047588263
C         5.73633639268976    1.04455230185673   13.54716848724236
H         5.09667050655556    1.82132328466925   13.94245371301712
C        12.90138765496178    3.07437808494470   10.72821187153817
H        12.61434697157464    3.59722941333246   11.62800240207764
C        11.08905388878453   -0.14896301667288   11.77080114105071
H        11.01131435207464   -0.69569509130564   12.72139654333079
H        11.69630583904685    0.74945332213509   11.93968783008124
C         8.31754698442656    2.28598412652530   10.14005762692110
H         7.71468875618889    3.17123512104831    9.92503305648470
H         7.69718597521719    1.39653788494296   10.04842265142933
C         6.22283164607832   -1.21749448699923   12.98054897591245
H         5.95523182453732   -2.26270384532763   12.93575148128710
C        10.01304488061164    6.98441446224265   10.75730482861346
H        10.59334138544996    7.74982570135352   10.26408015803223
C        14.24359404984654    2.85419257492217   10.48857938778564
H        14.96884195233157    3.19630981560336   11.21217889799385
C         9.55628881007085    2.23367160291356    9.23353098732001
H         9.81744019233841    1.19440469100600    9.00888475209304
H         9.39648213114346    2.77880821308117    8.29730999437065
C        12.36921522809626    2.01172133453483    8.64504594953050
H        11.65580474112056    1.69762380495103    7.89960208503983
C         9.63179914402435    4.70027209328261   11.33245300980822
C         8.16881032688069    6.29371344915431   12.09565156378388
H         7.27003048347826    6.48249260321190   12.66620843399485
C        14.66337344867582    2.21064285327346    9.33713440598442
H        15.71331914185227    2.04201641205594    9.15533841524111
C        10.39652776040983    5.65631816239098   10.67687098120859
H        11.27102215583092    5.35746399131799   10.12117114825882
C        11.73801141256058   -1.01796591321302   10.70710334107074
H        12.70539995022908   -1.36309807411420   11.05951625328660
H        11.88225816526298   -0.44635272929552    9.79385212917191
H        11.10845203544160   -1.87676247470549   10.49025732470999
C        13.71524178225863    1.80162194863827    8.41588600260711
H        14.02368671600903    1.31233935529145    7.50330800239476

