50
CSD_code = DUSVIY | q = 0 | S = 0 | Stoichiometry = C17H24Cl2N4NiO2 | MND = 6
Ni        9.31146585766647    1.52311986072265    1.99051661605138
Cl       11.16924192135093    1.29675336226432    1.01218382767628
Cl        9.23395898148491   -0.51639533833250    2.36509999806819
O         5.71629881967631    3.53383612912957    2.36767913023207
O         8.25830615286933    0.99565684497241   -0.20663417107628
H         8.25364680974380    0.05310162256254    0.01577962500979
H         9.09117191935271    1.13988662470983   -0.67759722983395
N         9.80771707453731    2.01088889380212    4.19403242208615
N         7.31521843378402    1.86374314653266    2.92966226278240
N         9.29099768727021    3.43452079609257    1.73176775896641
N         6.34421319963989    1.59665289508142    5.09160774855425
C        11.00114653620950    1.72775152565772    4.70424603182875
H        11.83460911347075    1.80534362935101    4.01781454212605
C        11.18280298638049    1.34474215744323    6.02114007476711
H        12.16922756199510    1.11404766032286    6.39061156910698
C        10.06845740164881    1.25980159048245    6.84132898255670
H        10.16565038349032    0.96048115869539    7.87464387187407
C         8.82525518716740    1.56111584752249    6.31358474543238
H         7.92632412754418    1.50235265647021    6.90443439866922
C         8.73673860475113    1.92520162010795    4.97614834425512
C         7.38993956526683    2.28018714523761    4.36573288936686
H         7.26810702451937    3.36801063516258    4.43407211104568
C         6.96043424152785    2.94243089406380    2.02197716259961
H         6.88390666538187    2.49794053483073    1.01585769423420
C         8.08883717875407    3.94814681062356    1.99319892000149
C         7.89526189929896    5.30107451771188    2.21977488670235
H         6.90940020792666    5.66697053852069    2.46044144258328
C         8.98446390850492    6.15404176810077    2.14475451568285
H         8.86286481113955    7.21257629423304    2.31947138267601
C        10.22430603451607    5.61881980786782    1.83862605270315
H        11.09776601353541    6.24538822244256    1.75569583784261
C        10.33343740302727    4.25170607847429    1.64711306065426
H        11.28082655259492    3.78639127355651    1.40720968204901
C         6.34108020245125    0.75756490390928    2.88832116350443
H         6.71211224945342   -0.05632448156862    2.26684842758284
H         5.37890918955640    1.11466998738662    2.50668002648757
C         6.20843145939267    0.35180132004016    4.35626669449770
H         5.26971622719592   -0.15086042019985    4.57938918766020
H         7.04357972019092   -0.29894762735416    4.63143460516571
C         5.11758842629594    2.35860955726744    5.27743233594796
H         4.31920378736680    1.64609883517397    5.49728540212144
H         4.83914731888964    2.92566713908664    4.37898810220167
C         5.26569639709784    3.31226760870542    6.45835875765919
H         4.33488887271568    3.85007263404563    6.61987136001091
H         6.05611006300882    4.03722203832597    6.27788740555895
H         5.51009938273807    2.75655014978346    7.35990956832597
C         4.92139920021608    3.90221725485994    1.26572007230435
H         4.00168333999541    4.31453472189198    1.67766513936623
H         4.68506743173171    3.03574740095168    0.63808106245821
H         5.41588646567294    4.65932177327717    0.64778450187212

