106
CSD_code = DUSWET | q = 1 | S = 0 | Stoichiometry = C52H47O2P4Ru(1+) | MND = 6
Ru       10.25069496545065    3.93799695675728    1.83452724417885
P         8.16986083072712    4.90492704785511    1.63662843954895
P         9.05403479061979    3.29811727635868    3.71373195784510
P        12.34298480036195    3.02313458660462    2.15701878977131
P        11.48894952870674    5.51852806094965    2.99653328329961
O        10.69953414791690    4.31550567818648   -0.23446810128398
O         9.71305361346429    2.48235391408105    0.34689924677061
C        10.18522596523777    3.21599627782273   -0.55540729853248
C        10.13557623814190    2.78670722621544   -1.99741570801380
C         7.65431933321020    4.48315944099653    3.37591822786440
C        12.88222043474275    4.33535597648481    3.36214140635144
C         7.01378686959632    4.07449522127761    0.51673504109000
C         6.29666198105652    2.93455768373031    0.86140921498477
C         5.52334374785137    2.29696100417262   -0.09248257877528
C         5.47117158866435    2.78145018149334   -1.38894942284762
C         6.19761608364314    3.90921086027674   -1.73960190477671
C         6.97129750262682    4.55238665379665   -0.79311266705868
C         7.74651624923537    6.65372427736180    1.42242299245075
C         8.74857560658460    7.55963231004748    1.09758141925079
C         8.44137254186096    8.90026325792792    0.94443448436278
C         7.13603677473772    9.33106171327863    1.11477110649452
C         6.13455625948306    8.42540670378302    1.43490497959989
C         6.43386334644853    7.08517338737865    1.58837887218215
C         8.20971186593961    1.68817486858256    3.79634435566414
C         8.22256451773678    0.85677093735004    2.67991415738050
C         7.55333249865584   -0.35418849088439    2.71523967994473
C         6.87310131544013   -0.73783351049972    3.85939963976604
C         6.85719377445581    0.09150668380925    4.97065314717707
C         7.52342437533023    1.30280060137560    4.94534720578718
C         9.53863075627939    3.54425111323849    5.44944118293043
C         8.83690148602294    4.31548044471568    6.36772099876324
C         9.28727273852711    4.40756993254341    7.67323633365865
C        10.42983114515620    3.73347821097748    8.07014613864728
C        11.12704045494105    2.95451033827361    7.15994299835680
C        10.68232891099575    2.86018450379800    5.85552939936998
C        13.44506858782712    3.10933581192262    0.72137839638847
C        14.27124321021184    4.18432779328497    0.41744715611464
C        14.99188146177635    4.18059531576893   -0.76451672179750
C        14.88565411411748    3.11876969055782   -1.64696077181854
C        14.05294477399541    2.04960900585598   -1.35178567785548
C        13.33154971014564    2.04527089161102   -0.17422468069492
C        12.82812691056364    1.45418331593524    2.92579036055045
C        11.84954091903083    0.52932015255203    3.26766661966778
C        12.20919902285992   -0.66219066937635    3.87284756563102
C        13.54371221721526   -0.92696741400814    4.13304981526787
C        14.52171204324054   -0.00503611625162    3.78755347377243
C        14.16969714386134    1.18621498773702    3.18231509482503
C        12.34267424453656    6.87309063082222    2.13220996036113
C        12.99060496203107    7.88186871880596    2.84049390860741
C        13.67507811212492    8.86841202283286    2.15444016057797
C        13.71680173254479    8.85555206558173    0.76866276134493
C        13.07248561478582    7.85221727302722    0.06330889218373
C        12.38394243520516    6.86127407105643    0.74064445425292
C        11.04270781685968    6.30018706603417    4.57637944654478
C        11.77119968893435    6.17760511907695    5.75331413574128
C        11.34883700879253    6.83811723700940    6.89386127575262
C        10.20803293979905    7.62266192141477    6.86793310183436
C         9.48457814612119    7.75646607433213    5.69315353979925
C         9.90093020995486    7.09804648498399    4.55235024670710
H         9.57412437492921    3.52058866069140   -2.57178904232062
H         9.66032213155878    1.81335303611154   -2.07648392011558
H        11.14790433541033    2.74527807391928   -2.39488538275797
H         6.64789172536533    4.07724650377763    3.50728558337351
H         7.78060740425968    5.38557483323273    3.98255501142889
H        12.75644337696253    3.92275455247529    4.36845884234588
H        13.89199367024579    4.73623825745942    3.24351825089342
H         6.34320744812214    2.53798583302629    1.86590052177858
H         4.96287647757466    1.41477735314364    0.17892600016716
H         4.86810499546101    2.27797271394775   -2.12898165386352
H         6.16142779842128    4.28365629882509   -2.75177494259036
H         7.54797508969753    5.43160287748263   -1.05613759341600
H         9.76290796889309    7.20199651554522    0.96600261913746
H         9.21921402456379    9.60532250045387    0.69249438113949
H         6.89439102936937   10.37605405637879    0.99452709885434
H         5.11853262802938    8.76735518399697    1.56154202128817
H         5.66015496038011    6.36868971516666    1.82931502100768
H         8.74618726319320    1.16644693290069    1.78541843442336
H         7.56427202192412   -0.99816487573358    1.84875248000597
H         6.35428183348631   -1.68394314142433    3.88766198025507
H         6.32512906422732   -0.20791411507553    5.86102404649179
H         7.51625903394782    1.94737601935644    5.81306705275819
H         7.93705651752191    4.83719105839754    6.07715316576326
H         8.73812834947358    5.00453639019340    8.38558048072613
H        10.77291646706334    3.80869625001583    9.09052502343404
H        12.01158738484301    2.41785275185270    7.46965083938683
H        11.20588502281079    2.24158392307814    5.13562142533149
H        14.35281202856167    5.02690068393721    1.08923275872714
H        15.63651874084778    5.01502443279210   -0.99722752754388
H        15.44813336364893    3.12472365080319   -2.56812432521097
H        13.96603037568214    1.22324451217830   -2.04163694480719
H        12.67099292836046    1.21958475691992    0.06684140298982
H        10.81133661215454    0.75246392308680    3.05265276405535
H        11.44918076645443   -1.38154554933693    4.13864433364306
H        13.82609807968590   -1.85641729261716    4.60344113974595
H        15.56040120684837   -0.21933591103643    3.98908593765299
H        14.92440906732195    1.90820863365959    2.90067773356818
H        12.95486229269606    7.89444785237237    3.92065361779987
H        14.17724765302214    9.65092236307148    2.70310920368046
H        14.25112878153133    9.63012713005414    0.23980976373252
H        13.10433598079195    7.84064766056070   -1.01582674607389
H        11.88225430068371    6.07400996654793    0.19409388776535
H        12.67033696339613    5.58031260913680    5.78558916464648
H        11.91820577768469    6.74380762867742    7.80613903499710
H         9.88667606346431    8.13605019201754    7.76108435390989
H         8.60152395968790    8.37766749976229    5.66694490230804
H         9.35704259334426    7.20540431756514    3.62096102351320

