32
CSD_code = DUTGII | q = 0 | S = 0 | Stoichiometry = C9H19Cl2NPt | MND = 5
Pt       -0.27833710177445    1.33179030774301    5.35205491986369
Cl       -2.18639390285988    0.30374136703549    4.70945430214866
Cl       -0.86140417942682    2.66277278083169    8.19551353111745
N         1.69034053245311    2.21727885156334    5.88882534719568
C         2.60488942426270    1.90821453281165    4.76632884706628
C         2.18219681194969    0.69156734640632    3.91851805117184
C         0.74454395028702    0.83502450886094    3.46873598622465
C         0.09008824195043    2.00681254345529    3.23761924784676
C         3.09619206923775    0.61160296170529    2.68899634814150
C         2.28223850675896   -0.61350770745600    4.72052149382576
C         2.24710902161397    1.70762180685312    7.14519658161815
C         1.54137159085041    3.66912678029841    6.02884905183501
C        -0.97822485338154    1.14874015033660    7.25755073707481
H        -0.85901110918772    1.99399183411369    2.71648093247081
H         2.65418847125507    2.77492852694609    4.10299552746633
H         3.61836581635262    1.74154308356836    5.14979505755732
H         0.58721119283021    2.96836446567319    3.26969837649920
H         0.28879565556879   -0.09047823841782    3.12170136324582
H         2.80048146312553   -0.22079983355068    2.05566842628706
H         3.03409773147605    1.52454557267754    2.10065546057292
H         4.13031106032286    0.46238173152198    2.99265650987231
H         2.15817812381922   -1.46583231076980    4.05645735195793
H         3.24887644909600   -0.70164668381343    5.21165071962000
H         1.48415671865816   -0.65935026552503    5.46971518682177
H         3.23033868622701    2.15493509267761    7.33763028751028
H         1.58746513347165    1.96833342455629    7.96970166071800
H         2.35548287415604    0.62721079281907    7.10789161821517
H         2.51369674753472    4.14722918628015    6.19848006672494
H         1.08761061971416    4.09964830446266    5.13728250112306
H         0.89435998069320    3.88456104531647    6.87767840199142
H        -0.41219104485573    0.39906099997839    7.82867460238805
H        -2.03912468218102    0.88028704104073    7.30412150382683

