58
CSD_code = DUVCUU | q = 1 | S = 0 | Stoichiometry = C26H24Cl2N5Ru(1+) | MND = 9
C         3.05465980901026    6.17079586598214    5.53165915463981
C         3.33534548178149    7.56698196186317    5.52568065558752
H         4.16251460013168    7.93501102827281    4.92721299222829
C         2.46172415106834    8.47576616907330    6.14577603157902
H         2.61616060302817    9.54256121485964    6.01380179022764
C         1.32514075161173    8.03823430677689    6.87027224559182
C         1.10348128823989    6.64644669161717    6.94392201035595
H         0.21923024221903    6.27202469496320    7.44839917831364
C         1.92092021380097    5.73453406522170    6.23233455777953
H         1.62439767794061    4.69721121393773    6.17691649029776
C         0.34171410657637    9.01779188804880    7.43490214737660
H        -0.39733809746523    9.26760093367724    6.67164883382484
H         0.83073772872071    9.94024330706750    7.74133652621675
H        -0.18522465668952    8.59652717676285    8.28803872418163
C         3.89540139633908    5.22798319565466    4.70942897868708
H         4.89422161341189    5.66524588809435    4.60650521136975
C         3.26184964150514    5.11892656253294    3.31597149760174
H         2.26243275425596    4.69400841787472    3.38399878594464
H         3.86975848995541    4.47295847602827    2.68918433642620
H         3.19242416792024    6.09480679400488    2.84064497113185
C         4.04849845243014    3.84805600125408    5.34902371165836
H         4.39275846225831    3.94591675893202    6.37700800601924
H         4.78802497329337    3.27462152093158    4.79752724105565
H         3.11441464434938    3.28963311660588    5.33480536576869
C         4.60493577448907    9.53989081883888    8.38680067795832
H         4.70159711142636    9.59884639132522    7.31091415103365
C         5.13885735668089   10.52869002061071    9.19169285797827
H         5.63171645196446   11.37536711871306    8.74283940870286
C         5.03893309138611   10.40657482295639   10.57267004946428
H         5.44253612688245   11.16559796577432   11.22325715484541
C         4.43646556955345    9.27777055594674   11.09432928293302
H         4.36363302766026    9.11845643193693   12.15744602640654
C         3.92840047152758    8.31859845025224   10.22202487111415
C         3.39378664139291    7.03759012084519   10.61320092310134
C         3.37855474771252    6.30208460841042   11.81128978118998
H         3.65031982582151    6.63798966556306   12.78961874909906
C         2.96455650092316    5.04673556439102   11.44766699805543
H         2.80898251158221    4.16727399434501   12.03867495740213
C         2.42027156691696    3.93515324023372    9.32705587778034
C         3.28956197423244    2.80009142855665    9.32432770275920
C         1.89402946237667    1.74807921865424    7.86323981256680
C         1.56762934095693    0.62316885210806    7.08453481833760
H         2.23494569628208   -0.22280846996190    7.10347488816364
C         0.41946575826943    0.63113912517463    6.33821481846871
H         0.15808168533201   -0.22877887821393    5.74115960036208
C        -0.43632986585853    1.74650986535382    6.34005294359045
H        -1.33823138619417    1.71819327181958    5.74811028041775
C        -0.14211524842153    2.85905385538812    7.08265310999489
H        -0.79633835960897    3.71670456321593    7.10087051932202
C         1.03069769535563    2.88235263908430    7.86012310997064
Cl        5.31308567133771    6.01648240876417    7.96097248042253
Cl        4.73931995540491    2.81049960347584   10.23394123373352
N         3.98514385252936    8.46924432725520    8.87918429598898
N         2.96632223630749    6.26286858269238    9.60509633495141
N         2.72625950045735    5.05778930889108   10.11503401324876
N         1.34144549855371    3.97145718585383    8.59980303496804
N         3.02221628421888    1.75721095147410    8.60082865063284
Ru        3.20491497685650    7.01193514023399    7.74239714117093

