40
CSD_code = DUVFAD | q = 0 | S = 0 | Stoichiometry = C19H10BrClN5O3Re | MND = 6
Re        6.53057392319774    5.60353124296695   20.02831870781520
Br        8.20719331244800    5.37179604820699   18.08698348586901
Cl       11.49618566650081    8.42887583533920   21.54109917702793
N         5.44362657728454    6.89809696467105   18.62392164499084
O         5.09507821082922    3.02284359341828   19.11724644952249
N         7.43540078391680    7.57035487871376   20.22671709346730
O         4.63005372923459    6.10791801111679   22.40725988467883
C         5.99236158591849    8.11007174039305   18.40817693983919
C         4.44771883274452    6.51024858222850   17.83218274685469
H         4.02601880266871    5.53350635583540   18.03102658287369
N        10.77849071591738    6.85537072518752   23.44765830182672
N         8.43658347944883    8.10701760781583   20.92213085282787
C         9.92741584509979    6.06535764430130   24.13479195371214
C         5.62035626233518    3.96532359901684   19.50335742082716
C         7.06902851083178    8.46183965841285   19.30893804186329
C         8.72062284683645    9.35433712878392   20.46597044008980
H         9.48268408682904    9.95959012227724   20.90969720241671
C         8.97380133254097    7.42641373458121   22.01499982564712
C         5.55499615403075    8.95224966464177   17.38864944852281
H         6.03168190489551    9.90850061622067   17.24684512462928
N         8.13513054473861    6.64775755049125   22.65161820251485
C         7.86395568457548    9.62029323727734   19.43305202610532
H         7.81611055648277   10.51310459479336   18.84569541960146
C         3.95974157646204    7.28768958407136   16.79840189577707
H         3.15593814910545    6.91769679145713   16.18307688321295
C        10.33662111912612    7.50851008644295   22.41820838753677
C         8.57284497804553    5.94538424202753   23.71472076162534
C        10.37639656054202    5.33778064675951   25.25049125704840
H        11.40649675333606    5.44139405434537   25.55150285989639
C         4.52698861166563    8.53374986965538   16.56766286772574
H         4.17607829148280    9.16078254680087   15.76272920578298
O         8.61254946657129    3.88927526513734   21.54369721943942
C         7.80001750038827    4.53403073035829   21.05576724938495
C         8.16694039505678    4.38986532642408   25.48808281525183
H         7.50705743191433    3.72642465711398   26.02608056838567
C         7.69937394339618    5.08909525289420   24.40847375167082
H         6.68300126388424    5.00278333145144   24.05879815720428
C         9.50209332203329    4.51588424168825   25.90966826152831
H         9.83833754482607    3.94772509944608   26.76396243134513
C         5.32695374284508    5.92452913724081   21.51463845368691

