37
CSD_code = DUVKOU | q = 0 | S = 0 | Stoichiometry = C8H12N10O6Zn | MND = 6
Zn       -0.00112428147451    0.00060452447653    0.00161125565523
O         2.00578325075425   -0.57807174292499    0.45709348157129
O        -0.73180580334148   -0.47085672456793    2.07550483172764
O         2.05309242591214    5.89859563750925    1.76172594842909
N         3.38980100820448    4.26557587719813    0.92590000014139
N         2.75395370907481    2.09103282363146    0.32295650514170
N        -0.18937724755902    3.69089130009399    1.45157851572151
N        -0.60981058443583    2.52322381789497    1.12374335639927
N         0.37788024093800    1.75029229843645    0.64363657426760
C         3.63600254743806    3.01635801554814    0.46723670834400
C         1.49537477610324    2.48170415235862    0.67832928079784
C         1.13490708634189    3.74316007255052    1.19499732496135
C         2.12999535367289    4.76665955879018    1.35127833034202
H         4.15111201342485    4.92917943864213    1.00178595724241
H         2.54394788458848    0.20987337204339    0.24531146857856
H         2.22698842031028   -1.27743533079397   -0.17177408879576
H         4.66057077232655    2.78545376004986    0.20732462895524
H        -0.03870264765271   -0.95368525171158    2.53534336574617
H        -0.83762323648793    0.37508682298752    2.52555167102171
O        -2.00910152736460    0.57744681924697   -0.45473399628206
O         0.72444529580582    0.47582826440420   -2.07321995747848
N        -0.37786729597805   -1.74937234085901   -0.64107283548205
H        -2.54584353024452   -0.21206150335083   -0.24499925596781
H        -2.23328201132415    1.27535678477864    0.17451020409733
H         0.03211361197555    0.96243425553605   -2.52992373954897
H         0.82809357927219   -0.36809653313466   -2.52690665496156
N         0.61178530086826   -2.52085212015790   -1.11943442604850
C        -1.49429789682473   -2.48225641782590   -0.67824128740657
N         0.19357453402220   -3.68893281531037   -1.44858709620976
N        -2.75404517220892   -2.09342996065058   -0.32503475140314
C        -1.13111700635825   -3.74304955239555   -1.19464396547169
C        -3.63448525527174   -3.02003708239149   -0.47104760376881
C        -2.12443150294089   -4.76794237803773   -1.35294743900319
N        -3.38567547418887   -4.26875143397841   -0.92966238571504
H        -4.65981567168559   -2.79075778449976   -0.21275355137097
O        -2.04516230145121   -5.89967323005965   -1.76351163424788
H        -4.14585336425775   -4.93349539351667   -1.00692473997498

