59
CSD_code = DUVMUD | q = 0 | S = 0 | Stoichiometry = C29H21N5O3Zn | MND = 5
Zn        4.02072083823503    4.55259761107978    9.81343061918986
O         3.17141739054184    5.34328340317265    8.32790176492164
O         3.06624219619057    2.91065074538271    9.86103221033763
O         5.63318684052445    3.74996859313173    8.82600094740835
N         4.44692848399579    6.37578729271069   10.48352142014259
N         4.84617424066107    3.98763545688436   11.55136098267648
N         6.10226086082315    8.40697529682698   12.77382272152954
N         6.75993021334101    4.76799818951270   14.33630042890906
N         5.13932129335290    1.86217868138166    7.65279576962266
C         4.21195059296066    7.52788414583211    9.89671033526569
H         4.62197566821598    8.41547620890246   10.37782178406894
C         3.50973951899800    7.69288522883962    8.69740549951911
C         3.06526748229478    6.55344938367888    7.94684625963343
C         2.47445906627704    6.78291452688587    6.65849739168866
H         2.17078915523470    5.90482858169513    6.10799002184265
C         2.29943866582406    8.02640199653522    6.16175836307458
H         1.85219408343260    8.17127698657757    5.18775145362139
C         2.67716945433222    9.18023213695664    6.90302578153332
C         2.44744566536603   10.46063961826680    6.37774774015210
H         1.99589145930140   10.54404351531701    5.39926174229454
C         2.78003380346845   11.58521258465756    7.08881677037718
H         2.60083008631725   12.56862408483891    6.68118292368770
C         3.34550804301389   11.44439560190514    8.35488318048617
H         3.59731904253910   12.32385792490989    8.92903347849398
C         3.58241732636569   10.19845835142084    8.88591520937667
H         4.00579232574494   10.14972180337182    9.87638103885780
C         3.27180480345520    9.02467729848122    8.17864719437466
C         5.05036760781222    2.75736065383519   11.94564926377982
H         5.68880803270289    2.60345176396456   12.81620010934954
C         4.46581045998763    1.63367173881153   11.33789031788385
C         3.43251396835682    1.79822209815242   10.35724552349103
C         2.73231754096468    0.62037259385920    9.92153222569968
H         1.91658196687587    0.77938274456251    9.23136120454836
C         3.05921841996564   -0.61529030777251   10.35957047156936
H         2.50888137234481   -1.48296013686852   10.02090169388946
C         4.13995705146530   -0.81738933944328   11.26119561420131
C         4.49958423207539   -2.11431913731739   11.65795900691370
H         3.92970837810594   -2.94870444853766   11.27408516748762
C         5.55218619346292   -2.32413252355886   12.51124634732986
H         5.82389248371848   -3.32342568423096   12.81584809157224
C         6.27858574795434   -1.22874976402623   12.97764230958086
H         7.11898761768351   -1.38677134146613   13.63734266539404
C         5.94076323363319    0.04990935899579   12.60433412280985
H         6.54518591756610    0.86176108154683   12.97670417761067
C         4.85315527611200    0.30419686913271   11.75034817965298
C         5.17106844340540    6.30849772172818   11.63719747890232
C         5.38714106080704    5.05935194514927   12.19467233488668
C         5.68998501469192    7.45973061804863   12.27261152298020
C         6.14491212722005    4.92317663359019   13.37899773130258
C         5.81778779076927    2.57022730722113    8.53962509220007
H         6.63513520938115    2.00472463264387    9.01940876553106
C         4.03100259405366    2.42227663730838    6.91348055749466
H         3.13785296330401    1.81944662666203    7.07662619598915
H         4.26664202317841    2.43590469904688    5.84758148918419
H         3.83753148606544    3.43509756891965    7.26009060513628
C         5.40327317789252    0.46517002976552    7.42329661713004
H         6.28309441366714    0.14927850333318    7.98008432663685
H         5.57124202620897    0.28832379487226    6.35911456931027
H         4.54961756776377   -0.13464818710859    7.74871318746051

