66
CSD_code = DUVTUJ | q = 1 | S = 0 | Stoichiometry = C32H30HgN3(1+) | MND = 4
Hg        3.67041577883387    2.04624878858607    3.94812980500653
C         3.40729808940485    0.18756989221275    5.03916939691681
C         2.09622620896704    5.12901382683986    4.22398290533276
C         1.03935763985304    6.21198803854865    4.49616466557337
C         4.30970570417623    2.69144343256510    0.59688336672364
C         4.35421151732148    2.56414430959154   -0.93479979329766
N         4.18493772261699    4.28517942527007    5.14558705111195
C         3.36277552659581    5.33187372847892    5.05016060253358
C         3.67391093081273    6.54350097082678    5.65897147260226
C         4.84500856585666    6.66001476355984    6.38909044263770
C         5.68051638068147    5.56099824198508    6.49632588551535
C         5.30177105221474    4.39712681307964    5.85274992448008
C         1.39837828299113    3.82489667430117    4.59541937539402
C         0.57364304613394    3.18219369289140    3.67304993572211
C        -0.17363345385309    2.07668732116133    4.04393562532723
C        -0.12204736552708    1.60371613042504    5.34391043120213
C         0.66592589039925    2.25437616771661    6.27824488901971
C         1.41464958340380    3.36045588097308    5.91134095957695
N         3.17099347092585    4.02861014742151    2.31113893413591
C         2.57212551468909    5.12880708960830    2.77131831779641
C         2.42445194540853    6.25545090970386    1.96992210025295
C         2.90103749576543    6.22176352437000    0.67262431853434
C         3.50692851358956    5.07053301147537    0.20523511870325
C         3.62186402895534    3.97691605694682    1.05634733382083
N         5.78339844109769    2.50812337225439    2.52579281573614
C         5.70329794254845    2.74658148354308    1.21536830581487
C         6.84028543783635    3.05025110183738    0.47315950846071
C         8.07527574826738    3.08552678256623    1.09888286809777
C         8.14780734223175    2.81479788376711    2.45497925778208
C         6.96891570379652    2.53381015174895    3.12086303879578
C         3.55132633516473    1.44910739631248    1.05246880281941
C         2.15709721590513    1.44200641351650    1.05720585129538
C         1.45734675171025    0.27867286673342    1.33078312839395
C         2.13649946109764   -0.89947366151968    1.58931649352570
C         3.52060332672540   -0.91359586953863    1.55337168341711
C         4.22416149445567    0.24780876980470    1.27983518096583
H         4.20829231033386   -0.50794077006659    4.79719580365876
H         2.45748888639803   -0.27427729116436    4.77828547656373
H         3.41842656785715    0.37546632191500    6.11076677257087
H         1.39404501515828    7.21924852048476    4.30286544734888
H         0.16671955494431    6.02855894395435    3.87323252144873
H         0.72784308075076    6.15253392058270    5.53681824764467
H         3.33882480688937    2.54298864832796   -1.32423313937901
H         4.89148547073336    3.37261455284765   -1.42002235144656
H         4.83563467564588    1.62540048903364   -1.20031663210599
H         3.01505310264953    7.39105961758234    5.58416892131703
H         5.09387466823251    7.59305527236408    6.87111199546004
H         6.59536060970204    5.60150959534052    7.06436574620515
H         5.91211196763012    3.50616452975161    5.91648051980841
H         0.48418453351862    3.57498752115425    2.67041312856211
H        -0.81759580947894    1.60021742951831    3.32068183880136
H        -0.71150385437816    0.74757292465031    5.63366023743571
H         0.68424953316638    1.91413699087811    7.30254948012799
H         1.98870275661185    3.88549269666546    6.66212489954693
H         1.94378404719832    7.14625863623302    2.33275024320100
H         2.79760191604408    7.08335832530344    0.03089580894174
H         3.87057668631429    5.03796602001515   -0.80615218909392
H         6.78110195485618    3.24686122139499   -0.58319317941977
H         8.96508241311604    3.31301416903183    0.53196394718954
H         9.08849257046378    2.81668629632643    2.98070716548272
H         6.97243047577525    2.30251408508220    4.17776377063921
H         1.61660622865141    2.34260530722510    0.80346767299047
H         0.37821839685008    0.28883085368438    1.31639433972233
H         1.59013854575213   -1.80701241913557    1.79476153385195
H         4.05721497278002   -1.83554746834217    1.71869021618110
H         5.30228664479940    0.21074952978678    1.20827175699713

