102
CSD_code = DUVWIA | q = 0 | S = 0 | Stoichiometry = C52H42O4P2PtS | MND = 4
Pt        3.37962134451815   -0.91640508326210    4.63818567598737
P         2.35442527391141   -0.35161142412370    2.62787375857996
P         5.38558329145229    0.17773909083904    4.30259867755284
S         2.08731063882796   -1.60782882171044    6.91002404806949
O         1.86545961087583   -2.69052713634835    7.83840805240521
O         1.43193103910170   -0.36157664212208    7.21787922986304
O         4.07974612624082    0.96262903327873    6.73345075430573
O         3.06446405762380   -3.90152499662682    5.23849546595524
C         3.85402070081704   -1.35723562605236    6.60353550881654
C         1.67626370643372   -2.02022519655916    5.20616902735373
C         4.21726873695230   -0.12258497147087    7.29583428863176
C         1.95219526456385   -3.43473050494813    5.00638597872324
C         6.37966173032484   -0.76994440841075    3.09878592209120
C         5.78814298918349   -1.85955430029342    2.47231532574713
C         6.50243244089463   -2.62130930867172    1.56503027094167
C         7.82074280042433   -2.30133461777859    1.28535663776659
C         8.42640727204114   -1.23219896551242    1.92749144156368
C         7.71350813389795   -0.47094304939063    2.83563966258108
C         6.63275864903876    0.30183675264324    5.62394123120307
C         7.04850850733381   -0.89671779148351    6.19815508517653
C         7.97578917787953   -0.89278345166894    7.22171934287930
C         8.50139769903628    0.30729889081950    7.67390321587163
C         8.09941212931456    1.49919193741799    7.09599660682006
C         7.16337436304491    1.50197002733272    6.07532400380939
C         5.32707128212503    1.86632254384171    3.61500395075978
C         5.99443888815860    2.24362631940021    2.45520628532789
C         5.91901939737800    3.55023710038716    2.00609960611205
C         5.16911947055349    4.48649529070432    2.69686888114455
C         4.48454629382830    4.11076580870874    3.84098603589815
C         4.56084671072760    2.80863454571327    4.29891475801830
C         2.97843332197823    0.90910399953034    1.46128770505046
C         2.53234918824961    2.22481712559459    1.47528301294987
C         3.01374561389729    3.12802065209888    0.54442515081851
C         3.94444704078530    2.72886509147212   -0.39934003745402
C         4.41125238993547    1.42393790763963   -0.40097832471366
C         3.93533906897601    0.51879993131777    0.52721615262030
C         0.79823068556104    0.38896401999186    3.21371118079002
C        -0.45377563913324    0.19876302453656    2.64461317675406
C        -1.56875507211156    0.77000943387303    3.23600079548445
C        -1.44045754009355    1.52379406393778    4.39074698951097
C        -0.19256208442424    1.70813013512573    4.96684177451428
C         0.92217179793551    1.13919839432153    4.38381928017630
C         1.86946780707121   -1.63895759258209    1.43189441728907
C         1.22946064594807   -1.31048222107094    0.23846219399183
C         0.83710798954707   -2.30957516842003   -0.63252058865282
C         1.08687763936268   -3.63919057316223   -0.32787593819679
C         1.74729444742752   -3.96876505625493    0.84305589988448
C         2.14101440069235   -2.97145020328157    1.71783003218313
C         0.84943349397794   -4.31670833648149    4.52580713224111
C        -0.18602336412428   -3.85847545913282    3.71557516953733
C        -1.16501642446769   -4.73274432294885    3.28165498060765
C        -1.13188561447448   -6.06458514075045    3.66238759832017
C        -0.10573809107659   -6.52682648042638    4.47014629038445
C         0.88519542047817   -5.66006538976084    4.88994865736088
C         4.72911853051437   -0.20467214941707    8.68064548747713
C         4.47382708451522   -1.30649696664068    9.49455614908238
C         4.98555962557216   -1.34304053468364   10.77895633054918
C         5.75845587609731   -0.29639519376873   11.25656799515010
C         5.99768416867027    0.80991352647927   10.45709658969643
C         5.47626354951263    0.86064031159434    9.17964316340056
H         4.35789139296912   -2.26479925493432    6.92712018085344
H         0.65897524256952   -1.68537672430214    5.01743201926613
H         4.76177231347550   -2.11242152509694    2.72720270546904
H         6.03437146413111   -3.46678158309206    1.08259889285381
H         8.38288613177768   -2.89276246166906    0.57780840751964
H         9.46043056209911   -0.99564889389847    1.72271636722519
H         8.19134420773818    0.35104119470858    3.35146130162624
H         6.63512710668380   -1.82756156304763    5.83214579148696
H         8.28867857754904   -1.82382327229488    7.67048533860554
H         9.22284330151094    0.31222929500943    8.47727969321461
H         8.51162553178073    2.43473265444205    7.44577288608199
H         6.83989889125715    2.43482150422131    5.63674771820821
H         6.57141031787893    1.52095911334595    1.89798466644667
H         6.45022807905886    3.83699358218472    1.11026618881644
H         5.11702850065814    5.50540303970710    2.34212947374778
H         3.89286694382697    4.83594794667519    4.38023967420867
H         4.04737560724486    2.51273754382223    5.20053542091654
H         1.80195027963542    2.53820691015645    2.20712655540095
H         2.65506469735099    4.14664225780496    0.55275582475197
H         4.30795931056712    3.43411228317197   -1.13182198016123
H         5.14490087150961    1.11143616630378   -1.12963480760936
H         4.29413045738337   -0.50193757055354    0.52849601808348
H        -0.56547232152564   -0.40673604788422    1.75612307135063
H        -2.54383876968228    0.61464016079043    2.79702969289711
H        -2.31731004581112    1.95514430160929    4.85051129997097
H        -0.08959568426761    2.26909763311877    5.88227146730443
H         1.89752776029979    1.24694249827166    4.85041980684079
H         1.05227654349528   -0.27242801499760   -0.00861740775668
H         0.33451330749674   -2.05156903424490   -1.55342440322650
H         0.77281847952010   -4.41573975705353   -1.00936520748576
H         1.95334287676920   -5.00154307939631    1.08059667505722
H         2.65997871739488   -3.22650102418596    2.63045763193592
H        -0.21874505639334   -2.82520820122502    3.40095880307390
H        -1.95964218296004   -4.37292647911582    2.64392779860710
H        -1.90456687356725   -6.74108014344549    3.32710039780151
H        -0.07747709536285   -7.56476544101879    4.76787213322124
H         1.69924785341905   -6.00064906388776    5.51183631959487
H         3.84474686221748   -2.10963130198390    9.14131058294540
H         4.78007934492606   -2.19331444834677   11.41239066510121
H         6.16442301703498   -0.33810385367735   12.25700735829849
H         6.58599741135846    1.63395531113793   10.83391677643909
H         5.64055238352639    1.71702746946943    8.54339105433924

