71
CSD_code = DUWGOT | q = 1 | S = 0 | Stoichiometry = C28H30CoN8O4(1+) | MND = 6
Co        1.30881535032269    1.31552565320571    5.33363510295563
O         1.68775871514559    0.03233123608451    6.58798169715861
O         3.02167416884988   -1.38927726404351   10.80523851205036
H         3.69889471719161   -1.26313838500413   11.48255779935124
O         0.86487338671028    2.50542067859080    6.66446759515309
O        -0.46976574962878    3.33768864503494   11.08521975242998
H         0.30803892458416    3.90945391091966   11.05986426828343
N         1.01024338589769    2.74068850723979    3.91399614246647
N         2.49870922978657    4.13775715839031    2.67109861803277
H         3.45068494428003    4.46017133628531    2.55648092660865
N         3.29435171921368    2.87786597028843    4.39511874247773
N         3.01538014445555    2.01874356367466    5.41484755094670
N         1.64149775150389   -0.01630848746716    3.85391883855686
N         0.22206093380721   -1.40515001337870    2.52575202320051
N        -0.64025416159804   -0.13782228082593    4.19602340658386
H        -1.47569891055001   -0.70288518839213    4.08188295082524
N        -0.44754411660701    0.59826593325917    5.33244708088134
C         2.28332491955790    3.22234498868881    3.68357951215368
C         0.01059221677804    3.27047052686092    3.24291351138703
C         0.22577761568940    4.21349678988101    2.20878612571270
C         1.49608035737740    4.63684168769644    1.92354986274028
C         3.90933682379059    1.88784410052439    6.35872900554396
C         5.20545014281505    2.63570701408831    6.25058378637532
C         3.67918372832154    1.04283433651097    7.48917324923877
C         2.54911026894754    0.16822620043265    7.54445243375942
C         2.37673222898668   -0.63803122862283    8.68195291727416
C         3.25833103992694   -0.59645513952854    9.74192427840302
C         4.35949416608265    0.27320034216236    9.69273074473097
C         4.55488466009966    1.06184457890967    8.59168194776159
C        -1.39200823993488    2.88669345568196    3.55701991021102
C         1.84182464012211    5.62147383251975    0.86791534960525
C         0.44913599055968   -0.54095545166783    3.50439500244879
C         2.71286625532641   -0.52495923700322    3.21751823235085
C         2.54938618539438   -1.43799146398735    2.18724959392199
C         1.26206922681810   -1.84752841765982    1.83723377746104
C        -1.37533131558883    0.68141213934641    6.24122218712967
C        -2.72345467388586    0.05766346375066    5.99502513623896
C        -1.11812035268669    1.38113528425884    7.46660324734435
C         0.01699385849111    2.23921987586073    7.60789918520770
C         0.20597517816066    2.90160765314395    8.83491164712608
C        -0.64646466430217    2.71986941426792    9.90228334582837
C        -1.73459814894356    1.84158267804748    9.77572204368715
C        -1.95368353382556    1.20319111817144    8.58766809368721
C         4.08452891900266   -0.12634968008828    3.63837680910190
C         1.00399069618272   -2.80438402318588    0.72955637244506
H        -0.61353690569022    4.59567962601650    1.65559843639754
H         5.22777819901622    3.44179014778105    6.98145129078271
H         5.29828456975024    3.06756002814648    5.25931994884325
H         6.04466740771716    1.97153054129371    6.43947894991363
H         1.52681596874654   -1.29918475770926    8.72039980954146
H         5.04539862373737    0.31871772061029   10.52660896294303
H         5.40077074741424    1.72946566960911    8.58577571910090
H        -1.52151515205804    2.79833094886867    4.63259038816904
H        -1.62504198219856    1.92648683261193    3.09752962544905
H        -2.08326824347042    3.62913464595102    3.16791024606696
H         2.62125828700750    5.22686425118718    0.21770123467103
H         2.22103276789928    6.53702003737700    1.32185480334580
H         0.97079046052434    5.86724591513141    0.26896323850591
H         3.40768029416170   -1.83403311396404    1.67114619237185
H        -2.68531265795610   -1.01708921530248    6.17487432925094
H        -3.05013468864814    0.23163747936268    4.96992681547574
H        -3.47281269556442    0.48861239037482    6.64889314470729
H         1.06269302960383    3.55627638192677    8.91437982554778
H        -2.37295051876511    1.68214186781597   10.62821173242112
H        -2.77689722049388    0.50959093141955    8.53505764055622
H         4.19623208144893   -0.28582185162944    4.70919579072682
H         4.26487737422882    0.92747426139672    3.43505753802916
H         4.82594614457596   -0.71775743418490    3.10880233360717
H         1.50884574310852   -2.48057694357307   -0.17800291331033
H        -0.06355718335186   -2.88632513750197    0.55121659899833
H         1.39522692662393   -3.78550703593907    0.99497000104896

