143
CSD_code = DUWNUF | q = 0 | S = 0 | Stoichiometry = C73H60N4O3P2Pd | MND = 4
Pd        3.62959004620908    0.14986477327133    4.06542950375705
P         2.64398184651025    0.66388400380630    6.10034424083750
P         4.48882530547636   -1.93876569946859    4.56644206398545
O        -2.05148151954337   -2.52806789254140   12.00257606574867
O         8.58678423780952   -6.61920961052770    9.87298940900850
O         5.55487453052843    2.06112628656268    3.46651292758340
N         3.50852416588195    0.04958298517913    7.44961174765619
N         2.76797692834354   -0.43626050618752    8.46597389365539
N         3.48933180736928   -2.92144351501628    5.56024761735156
N         4.12666462628476   -3.75346483142152    6.40975450969686
C         1.50142516873104   -0.28471681011380    8.29059996758994
C         1.08921741943898    0.43351600415508    7.06259599280981
H         0.12775788439476    0.18935871217660    6.62866511327229
C         1.55554151087762    1.89968075976456    6.96394411746340
C         4.87281077797742   -0.22397720198456    7.39978001439972
C         5.44362740691226   -1.14770826386220    8.27300689726254
H         4.81008003124040   -1.64704868024332    8.98791721379892
C         6.79844573713864   -1.40976217342288    8.21139791082972
H         7.23117937084046   -2.12954426671007    8.89052370513942
C         7.59661853831665   -0.76613105615723    7.27897730636711
H         8.65477953826331   -0.97791232964388    7.23325233688051
C         7.03261820664987    0.15514499348470    6.41003789478087
H         7.64514675127518    0.67115647167429    5.68528574914778
C         5.67862976010525    0.43342524694762    6.46663241321785
H         5.26086688173384    1.19594060740698    5.80839657798052
C         0.55114735850785   -0.82949155764728    9.23831184294953
C        -0.80336930776600   -0.51013383965504    9.18838672511954
H        -1.17330143203435    0.17677923797363    8.44168427404430
C        -1.70153238959070   -1.05295766504445   10.08902738940033
H        -2.74289874155580   -0.78023899898602   10.01600764863166
C        -1.25908112626619   -1.93233226090829   11.07140939218115
C         0.10179061790341   -2.24927514554242   11.13520411867623
H         0.42999084054672   -2.93005596234909   11.90475061613643
C         0.98754852548078   -1.70806366122385   10.23673406860209
H         2.03633139109577   -1.95196076111064   10.28075563955975
C        -3.43056706071232   -2.25129480253832   11.99281956916478
H        -3.62884749476202   -1.18803698002311   12.16282164426985
H        -3.85350735462741   -2.83068301338983   12.81193484241394
H        -3.89690064736050   -2.56235581434107   11.05227414175706
C         2.07375343194011    2.53712769986089    8.20566317845269
C         1.27748618833008    2.63265160733304    9.34077106259703
H         0.27032602392753    2.24210177004120    9.32322197316000
C         1.77255353596673    3.22649513167687   10.48705506969127
H         1.14778385108814    3.29722790076894   11.36533678463809
C         3.06433294372813    3.72504063368995   10.51139652314383
H         3.44891074917838    4.18464222775954   11.40983320983929
C         3.86269882577442    3.62822442819333    9.38500131262250
H         4.87244112859447    4.00949955183733    9.40118561435262
C         3.36865732228599    3.03568229071815    8.23817827679966
H         3.98380205715586    2.95230844133235    7.35165546952043
C         0.76512625357734    2.73292759804161    6.03176802588473
C         0.39165771646984    4.03383516987543    6.35661809250808
H         0.69337738259425    4.45488655407597    7.30418401536634
C        -0.35935128130765    4.78796521856608    5.47295291608065
H        -0.65015407864593    5.79207992590591    5.74440575492532
C        -0.73551835394341    4.26702739029784    4.24671878199835
H        -1.31827916257476    4.86013746531126    3.55766967073159
C        -0.35481874562652    2.97866976568761    3.90669144177840
H        -0.63747756212768    2.56863361737450    2.94710693943167
C         0.38183701787075    2.21620995614291    4.79244130021672
H         0.67866790884456    1.20713047738179    4.51390836484856
C         5.40504370493289   -3.75386302104823    6.25304015719447
C         5.93571703324224   -2.91989379310345    5.15120712272239
H         6.93672595319641   -2.52027785134644    5.25201216649095
C         5.46743370749550   -3.27385211330815    3.72727122827186
C         6.26070197806340   -4.49970407163479    7.15406408410423
C         5.73526206993396   -5.02352678454682    8.34092366857823
H         4.69072962768849   -4.86326432293528    8.55249804767351
C         6.53117215897231   -5.72056295094494    9.21591503845326
H         6.13466271484043   -6.12403956163881   10.13427865843476
C         7.88720088407100   -5.92208884890166    8.93801123706906
C         8.41704324627970   -5.41292572490788    7.75716096905372
H         9.45662565904559   -5.55718526744989    7.50723422764027
C         7.60925694301170   -4.71306348201491    6.87936828896416
H         8.04357339284933   -4.33906062738099    5.96393392686588
C         9.95604227082286   -6.85639942886531    9.65470405891601
H        10.12227693945955   -7.45070533752874    8.75033094749286
H        10.29977641687713   -7.41834992770344   10.52166307165343
H        10.52042081299868   -5.92089272480643    9.58399756296342
C         4.76684043914467   -4.56599071334342    3.49580972182140
C         5.26462178429572   -5.76813494299075    3.98143964045419
H         6.18714907848867   -5.78138728340642    4.54314661316241
C         4.58082972666350   -6.94739547380850    3.74418957046451
H         4.97297014652725   -7.87807590758154    4.12723594708711
C         3.40037089819939   -6.93718388997492    3.02087292876554
H         2.86875398247397   -7.85995065342930    2.84098724304155
C         2.90235275798779   -5.74168549000229    2.52950371466489
H         1.98197211152688   -5.72574082830320    1.96468880945887
C         3.58147447573292   -4.56266972759461    2.76845103511239
H         3.20307186339043   -3.62266224826696    2.38690193700404
C         6.32928161532287   -2.75497978341608    2.63949346743158
C         6.84595287786489   -1.46132010291739    2.71726279842737
H         6.61410671273816   -0.82790125239456    3.57031403051389
C         7.63134075300162   -0.95477102317014    1.69883601866471
H         8.00826956229555    0.05491890422498    1.77004770350761
C         7.92047523189016   -1.73273756652587    0.58934495479675
H         8.53367260524370   -1.33704112388386   -0.20680793026854
C         7.41189834612955   -3.01817176032975    0.50422445253202
H         7.62935844569418   -3.62930953599510   -0.35990385084603
C         6.62032721820401   -3.52683447585486    1.51812744157220
H         6.22032367103258   -4.52742210321937    1.44073452512223
C         2.11833798001960   -2.73509490714565    5.68311308402543
C         1.41331045928147   -2.10190381977473    4.65740455908511
H         1.93077388181404   -1.79944768233210    3.74713415402049
C         0.04726727541154   -1.92018981021547    4.77235619040698
H        -0.49534478349572   -1.43618149587591    3.97271776721859
C        -0.62927878683306   -2.37062872042492    5.89512953335195
H        -1.69694889145433   -2.23050640583207    5.97775589617309
C         0.06929807471565   -3.01051108507665    6.90664292028990
H        -0.45218932820834   -3.36608678525496    7.78279069224301
C         1.43465386909787   -3.19054824597723    6.80897760796856
H         1.99055786992237   -3.68213387818543    7.59041157509905
C         3.95472999274249    0.40277817267398    1.94166722821351
H         5.03781326477118    0.33860873347577    1.82516760446287
C         3.44842791980513    1.57754628985516    2.49204876255734
H         2.44429559094006    1.94918355301455    2.30274548301003
C         4.35566758725151    2.34694156059741    3.34630831947290
C         3.75679845209601    3.48920142549022    4.07209503289422
H         2.71625649843909    3.70976970467711    3.87636911225003
C         4.48707960508398    4.19513066101968    4.94602498392036
H         5.51554412031007    3.87939584955346    5.09029141303306
C         3.17006332272056   -0.58057535583696    1.19972334697541
C         3.80658310700810   -1.47798474804050    0.33838374628456
H         4.87542356114420   -1.40548668574188    0.19572962989077
C         3.08645209366777   -2.45934934050751   -0.31509496126765
H         3.59670945062509   -3.15020325551502   -0.97033903353877
C         1.71794051493625   -2.56564800237272   -0.12507871360847
H         1.15749189352004   -3.33756371889297   -0.63143174934674
C         1.07173694166830   -1.68200136444282    0.72567741708618
H         0.00573023869034   -1.76856062177331    0.88235616435485
C         1.78628750442087   -0.69979994336371    1.38317493308807
H         1.27256782065479   -0.02480622297888    2.06266300821603
C         4.04947249060329    5.31958783629529    5.74886116320639
C         2.84936823010531    5.99242454093078    5.51310088642456
H         2.22459826202918    5.70015750106466    4.68344286756327
C         2.46084442881479    7.04007109760851    6.32419785137124
H         1.53118611453791    7.55401940366292    6.12689947970832
C         3.25674867371784    7.43788438691306    7.38616835157713
H         2.94598818493984    8.25432758135426    8.02133434206487
C         4.45846342103532    6.79042256411255    7.62241045078456
H         5.08807061608192    7.10396856256278    8.44253328670878
C         4.85387867140938    5.74842276598723    6.80816068294404
H         5.79373069734906    5.24700112218317    6.99227881337770

