51
CSD_code = DUWQES | q = 0 | S = 0 | Stoichiometry = C16H20N6NiO8 | MND = 6
Ni        0.00063093234977    0.00003770404661   -0.00010704515077
O         0.98585736941046   -1.39655440147292    3.66769260599557
O         1.10482988654821   -1.34718468944355    5.91022552695870
O         2.22793161998189    0.67305166813151   -0.36123505191124
H         2.14186636005566    0.83350528203996   -1.31075430670494
H         2.37737161987968    1.52413355690191    0.06102553594154
O         0.74212149182144   -1.69183793274888    1.06197477081119
H         0.72913262978083   -1.59898059690293    2.05085970817083
H         1.67506677634086   -1.78334140393063    0.84273543265596
N        -0.13702168697837    0.96842319869167    1.53334637942545
N        -0.61324514732110    0.24936243211962    2.51030439510861
N        -0.39534007018704    0.84046546088460    3.66171655940486
C         0.41530016711281    2.09876568133699    2.04317851607910
C         1.00613428379446    3.22088160648645    1.45441229984801
H         1.05717963701469    3.31445137313276    0.38105949018608
C         1.46110583135862    4.20380110850364    2.29889989937255
H         1.92055655430351    5.08825240387469    1.88468844655521
C         1.34235634967253    4.10051239275285    3.69407279642163
H         1.72428816021587    4.90080104694485    4.30836896889701
C         0.74107152676085    3.01778312671161    4.29268046617256
H         0.63805054628834    2.94545447574198    5.36326323020402
C         0.27036679498292    2.01742845393504    3.44994150524352
C        -0.51888556739055    0.09905655103538    4.84120357596258
H        -1.43796770041706   -0.48290353776359    4.85030913491854
H        -0.42292599128131    0.71415593873612    5.73009163916401
C         0.70628465418629   -1.05173335460190    4.81350530154189
O        -0.98354876649973    1.39655742522595   -3.66839632395597
O        -1.10335471210564    1.34625534740433   -5.91082728813850
O        -2.22730681020315   -0.67145436738579    0.36001150000306
H        -2.14140591131033   -0.83341792198722    1.30932366352630
H        -2.37805009205215   -1.52167902415550   -0.06358759064777
O        -0.73986658317371    1.69227739880208   -1.06260049263292
H        -0.72683214623474    1.59937677900413   -2.05147549326241
H        -1.67275248457368    1.78448994804494   -0.84346954478664
N         0.13796080825710   -0.96854266902581   -1.53349142678564
N         0.61445703527802   -0.25025614097006   -2.51089077895959
N         0.39572277408166   -0.84165515285104   -3.66199799492754
C        -0.41547848961646   -2.09862060928350   -2.04271549398703
C        -1.00709927314713   -3.21998056929811   -1.45329579829588
H        -1.05780293002705   -3.31309947535143   -0.37988464162688
C        -1.46328743053850   -4.20279698935607   -2.29724657489571
H        -1.92336719571689   -5.08668525992632   -1.88253000829494
C        -1.34497254341140   -4.10013214511274   -3.69250091031931
H        -1.72791243995004   -4.90027993355963   -4.30635467043533
C        -0.74288692278713   -3.01819551369402   -4.29174151577055
H        -0.64022574796459   -2.94635811308046   -5.36238952335054
C        -0.27092861023770   -2.01796375157997   -3.44955328524381
C         0.51954456787589   -0.10080380380934   -4.84181168167934
H         1.43916071729997    0.48036441237507   -4.85140268463928
H         0.42278056970795   -0.71615558378803   -5.73044966970302
C        -0.70466441121106    1.05096816815960   -4.81418155248410

