93
CSD_code = DUWXAV | q = 0 | S = 0 | Stoichiometry = C30H30Cl2HgN20O10 | MND = 7
Hg        7.20495986508673   11.30386426436837    3.27619353247020
Cl        5.21465431280664   11.90451401201228    2.55157015996684
Cl        9.32958278790813   10.66382953238239    4.04978667753153
O         6.79927789455715   11.82757972355636    5.79514822811464
N         9.69129696261817    7.72733402262927    7.21424130866527
C        10.89749605492468   14.44575991108667    5.74501933538951
H        10.95481749224994   15.38722233986024    6.32017696850949
O        12.21636115229175   10.23537479816717    8.00627889370349
N        10.67731397715979   13.00252880493716    1.44589449487991
C         9.19357454712648   13.93170893786986    4.22071781165898
O         8.56096670286862   12.13836344250983    1.21513427662851
N         7.82526198804478    7.26414184868003    4.53323259492727
C        10.67370661789629    7.24117702156389    6.37098697351781
O         6.46342883219010    9.11363157497727    4.47277906926185
N        11.72608102810589   13.44763657547060    6.35556866145927
C        10.61318568908150    7.73551454051988    0.98206581003073
H        10.81864693293171    7.27634388319959   -0.00147564139828
O         7.55288358885264    9.30597086758751    1.64216990834975
N        10.69441019296974   11.95947796174958    7.95313559930489
C         9.94938827963841    6.77851078452962    2.01103497856431
H         9.76437787463225    5.75774184584054    1.63129968809760
O        14.13501614490824   10.57278873056264    3.01795680432902
N        12.52118270781517   13.58555796489036    4.28420912393609
C        12.71385092413912   12.97580990939915    5.51040019832231
N        12.64439453102110   10.35973749272128    1.27887559065414
O         8.09489763422230   13.69705094674148    3.78234975352126
C         8.60680800468053    6.54219364616350    5.50265945390062
H         8.26297146955434    5.49292937122135    5.53808644187035
O        11.85058984083724    7.27037712042136    6.56579205587105
N        10.03026423596578    6.58587562470115    5.33703396108768
C         8.53587165260002    8.60753846191197    1.62644272695574
O        13.03538638816729    7.48250460531783    3.48267377469933
N        10.30771394800676   14.23793767121702    3.48263288176029
C        11.45428347342517   14.54321927087891    4.29744966142363
H        11.83965836028374   15.54154538149138    4.02310238165719
O        13.63145402619067   12.27697606592437    5.81611243073589
N        11.84427239907037    8.10659010022955    1.61627921988508
C         9.75834063466521   12.04260295520804    1.10831894495770
N        12.89104856219559   12.34667248208666    2.24486768457957
C        10.77055231941008    5.95065642099006    4.28304137269827
H        11.79128139487968    5.82137076930554    4.66688234935514
H        10.30747434096463    4.98534051070884    4.04012848869216
N         9.51548912858800   14.09762103611523    5.54313196808022
C        12.03294183232393    7.48162307002437    2.83545897686795
N         9.95751591129603    9.88533701595920    8.26463518249944
C         7.21563782428186    8.37454591817460    5.05784014457959
N         9.63344116397241    8.77794795425377    0.82257921455954
C        12.85445431698266    8.95728423640872    1.05216171847983
H        13.78722446301001    8.70398557623914    1.57347259111352
H        12.93285386225378    8.76783835804615   -0.02639473824194
N         8.48559910693676   12.61630237674336    7.14178921966657
C        10.02678051484727    8.45767338394012    8.40436654465110
H        11.07972930696597    8.22601620362914    8.61324622510918
H         9.37427792748980    8.13767808140885    9.22727504591194
C        13.39339217501668   13.31884887353001    3.17490248691589
H        14.30403338815421   12.88169599137526    3.60572212161057
H        13.60944896560945   14.25571460655184    2.64485534708103
N         8.68910870955326    7.41639865953544    2.28801838097093
N        10.89543889145911    6.73660469815437    3.08754736760922
C        11.64426449697640   13.01143900365633    7.72139979393765
H        12.62841674878173   12.58763532411102    7.96180506628335
H        11.40740526044064   13.86786214023409    8.36615867073019
N        10.43331329092368   11.02657510269918    0.48203602305065
C         6.92377068195646    9.39749304763349    7.26295991651498
H         6.70423847536917    8.94829745231978    8.23891012901117
H         6.00810062210299    9.75006154838800    6.77122017253283
N         7.48761470504007    8.39927686590256    6.40147206862282
N         7.75212231405149   10.55272091843151    7.45222144902380
C         8.53794756024088   13.93459015947854    6.57963159144021
H         7.55990368028045   14.11212265212767    6.11437647097780
H         8.73640634658323   14.65882492589449    7.37873320043534
C        12.02917343195323   12.62037233742520    1.13225028735413
H        12.48333701300773   13.39060218334005    0.48350482194767
C         8.36981764413890    7.33989936390582    6.81510968179811
H         7.88714608969387    6.75891038823636    7.62129069887905
C        13.29316876551060   11.02479129536098    2.30322278893767
C        11.85778956083485   11.23155637420900    0.45615252915743
H        12.21252561520640   11.18611919282747   -0.58907314761216
C         8.78365198296495   10.68822079601720    8.44688190471226
H         8.35119959496048   10.50314807130566    9.44643899431025
C        11.09285443679762   10.63704488895718    8.02300925715483
C         9.74408885396585    9.89596475482908   -0.06869340493450
H         8.71924278138953   10.22918938171642   -0.27662086032462
H        10.25286442270342    9.57616278455246   -0.98592482390489
C         7.62188463084653   11.66567958222008    6.66195230049559
C         9.29881911744697   12.13819209006009    8.22897582012308
H         9.16853523825029   12.80435374808700    9.10055077638435
C        10.28038295296361   14.24167436357869    2.04886092623406
H        10.92764528556889   15.04568019082509    1.67863499649622
H         9.23468071023739   14.40625041265528    1.75912427044892
C         7.66812554342951    6.90295045830950    3.15430149036004
H         7.64001070466919    5.81006248599285    3.06940543635389
H         6.72409818502798    7.35315747903192    2.82165827507719

