51
CSD_code = DUWZUR | q = 0 | S = 0 | Stoichiometry = C18H22N8NiS2 | MND = 6
Ni        1.74294028260320    7.65746182849724   10.12264756946328
S         2.45550550418673    5.52804243650451   11.19691637873336
S         2.25291268362951    7.07593432449192    7.76522218205210
N         0.58939504636536    3.73505516538235   11.47621913148509
H         1.40001636888257    3.19389017667427   11.73593015289307
N        -0.15423705438192    5.68303491804024   10.53440183718877
N         0.08766365666975    6.90558868285653   10.10165085918149
N         0.61051583806061    9.39488799349458    9.38036384145129
N         4.69850427843648    7.72755155608266    6.97910811722059
H         5.63207111530976    8.02501326265688    7.21994077465104
N         4.22391421918709    8.32804637117535    9.10052292319314
N         3.40643992609842    8.38443564124350   10.13281418946346
N         1.67256078426170    8.57023931047222   12.11756209767261
C        -0.64881850659016    3.03748894263288   11.25179923092691
H        -0.84824536988990    2.37352394169555   12.09300049480182
H        -0.62049960896606    2.44682428780174   10.33021516828628
H        -1.44517557622727    3.77347909730686   11.17052388293954
C         0.84665574708768    4.97958723141182   11.02614236712482
C        -0.91021437011071    7.59522676723104    9.60436434401314
C        -2.29197677275694    7.02085125278897    9.51213691216585
H        -2.33265552860489    6.10143080355826   10.08910382514175
H        -2.53798029135001    6.79110416853852    8.47564361704734
H        -3.02720065799650    7.72517507754116    9.89740056395117
C        -0.62660223598547    8.92378197902905    9.11722045406387
C        -1.54942969361068    9.69044601027737    8.39262208029757
H        -2.52975489937711    9.29838445112507    8.17630678656324
C        -1.18094207698533   10.94118834780887    7.94413622147411
H        -1.87630009264295   11.54652835181939    7.38061380992779
C         0.09706637501370   11.40995605729117    8.22125687608284
H         0.42028171423276   12.38307802586168    7.88763988019838
C         0.95278549107228   10.59294460679031    8.94153093750187
H         1.95794490991794   10.91906547972395    9.17869713366653
C         4.51844996070160    7.01850620215403    5.74304909986509
H         5.01379146696510    7.56133866381331    4.93829017188275
H         3.45132793723018    6.95271619049471    5.53673479748740
H         4.92583497701681    6.00365868937330    5.79481646845291
C         3.80632912576659    7.73988985964774    7.99143371975622
C         3.82964461636958    8.96661450399322   11.22941465549930
C         5.20713763285316    9.55095285578673   11.32448452303779
H         5.65301994327027    9.56618863953315   10.33394941164891
H         5.83215491853483    8.94409704681957   11.97904926796997
H         5.16744617483507   10.56395945076969   11.72140215991614
C         2.92997712181476    8.99997002290566   12.35595043983636
C         3.31429340573347    9.42457055968920   13.63551990565471
H         4.32423936506530    9.75428377318917   13.81668124268112
C         2.39192083016297    9.39679042185499   14.65971997062928
H         2.66905741848331    9.71677954486178   15.65388631920849
C         1.10364937818607    8.94702439866816   14.39832524494565
H         0.35559134200311    8.91131310694967   15.17411918615156
C         0.79967341511938    8.54347506250286   13.10878362034240
H        -0.19248023566934    8.18592445917295   12.86223515420912

