91
CSD_code = DUXBAB | q = 0 | S = 0 | Stoichiometry = C50H34O4P2W | MND = 6
W        11.59006847789252    9.03918989981843    0.58422796038618
P        13.96585658496475    8.35439622892227    0.30817985303038
P        12.36996086186315    9.68592449324260    2.85699892519207
O        11.66672115374691   12.00485507626259   -0.40480604146634
O        10.56752529856970    8.57821476055860   -2.31912435980146
O        10.68719519536460    6.08101012596405    1.04556182629581
O         8.53503876596467    9.53760042129943    0.90856959107942
C        15.41670455053182    9.07542900418204    0.95109787828271
C        16.58963878937884    8.36565237028350    1.14594098668081
H        17.44873051282181    8.91772242512202    1.50765524083433
C        16.76116905351345    7.01054249702125    0.87782863642352
C        15.73286496600368    6.24195078600131    0.33654934885585
H        15.93228687361835    5.19497823722020    0.14497245088779
C        14.47251523034855    6.71355101850505    0.02250844494931
C        13.48303878836910    5.81898218974420   -0.59364665869228
C        13.24865580500770    4.54074928454149   -0.09581395657399
H        13.79829670616230    4.19953252662138    0.76868147955047
C        12.29368290587326    3.73027263497771   -0.68057256536452
H        12.10712337592844    2.74560522726976   -0.27736345253317
C        11.57200993884683    4.17806099014807   -1.77464997306135
H        10.82133593473911    3.54494431913305   -2.22344374353170
C        11.81798917926817    5.43820693226359   -2.29397532644042
H        11.26764879687504    5.78945954586955   -3.15382152843980
C        12.76659085507239    6.25302825742241   -1.70575962795524
H        12.99063033826234    7.22669169641520   -2.12482652859611
C        15.37607279482724   10.50990687780478    1.26333711569620
C        14.75889064488108   11.39499200617640    0.38173897382280
H        14.33395737934693   11.00875957845036   -0.53754935298634
C        14.73890591333820   12.75157181059520    0.64146601295309
H        14.25566645115130   13.42350591088758   -0.05200954429367
C        15.34599679063052   13.24625464053673    1.78450777847042
H        15.34587248046078   14.30879496081359    1.98133144928027
C        15.96827878680661   12.37717494889915    2.66479444903150
H        16.45571845713446   12.75596471871583    3.55102752691944
C        15.97932194195191   11.01902446457309    2.41121221383709
H        16.45384433960121   10.34809462850969    3.11221366886792
C        18.05490280871549    6.37514492787819    1.17150634794269
C        18.74814613992809    6.68258397683292    2.34098363879977
H        18.32770360579710    7.38905572604539    3.04177857367255
C        19.95494431204992    6.07343343219229    2.62828363943577
H        20.47469842059235    6.31718562526994    3.54358729162923
C        20.49644140856209    5.15141037469581    1.74833957530874
H        21.44032671983075    4.67710424925084    1.97201235124701
C        19.82117329188711    4.84283574197316    0.57931389034235
H        20.24147466496242    4.12985454723681   -0.11484769520252
C        18.61036991637740    5.44576857932410    0.29423270766068
H        18.10028936713677    5.21321193719757   -0.62925194988346
C        12.32898281014163   11.31274289587648    3.47390571833432
C        13.11469935320437   11.75209170691971    4.52224872985229
H        12.97926014166817   12.77753273526830    4.84250114301514
C        14.02259934870184   10.96327442493379    5.22634464241780
C        14.21049689335205    9.62101206201591    4.90562555363673
H        14.92808049879455    9.06012330767861    5.49192538580899
C        13.55188669281374    8.93806057124607    3.89751639632299
C        13.82223130537802    7.50840108008140    3.69260410911407
C        12.76231145576643    6.62689135267571    3.49093791175056
H        11.74918890347274    7.01144411151271    3.51090677233720
C        12.99133711359707    5.27431679223846    3.32847156470231
H        12.15828797445370    4.60414168178604    3.17700651383471
C        14.28614508307006    4.78213327742700    3.36371464927530
H        14.46800561618582    3.72368994341273    3.24549576882006
C        15.34791399797915    5.64745593247471    3.56672164317024
H        16.35896647966321    5.26732731087327    3.59535594958573
C        15.11811187932466    6.99984115945293    3.73428682345571
H        15.94890478268584    7.67222808290387    3.88931054343434
C        11.37892521413213   12.23417215753024    2.83495508013782
C        10.05922299100011   11.83781649428509    2.63870665739966
H         9.74278111514458   10.87099911809365    3.01073355993299
C         9.15620649929049   12.68243973229931    2.02113821791037
H         8.13624889861759   12.36123443107230    1.87241645800728
C         9.56410556305416   13.93345140515909    1.58911563849448
H         8.86419920184506   14.58930139158891    1.09336585361670
C        10.87076233039754   14.34317402983348    1.79694460880496
H        11.18921800400749   15.32055985977442    1.46491570688777
C        11.77316587700757   13.50312305007606    2.42190438157195
H        12.79760324875515   13.81276798923490    2.56730989324214
C        14.78388411635672   11.55318508533135    6.33819036582147
C        15.25416641161052   12.86383286444017    6.26690182720106
H        15.06378684334594   13.45166423703681    5.38115743068236
C        15.97935592823107   13.41307069092081    7.30722214092626
H        16.34294299397160   14.42759410870940    7.23063229757952
C        16.24126105753501   12.66800982411741    8.44482833476273
H        16.80645725128053   13.09821112145978    9.25807290655778
C        15.76855104990316   11.36960534519551    8.53445949927107
H        15.95854358917964   10.78567291999577    9.42327962233815
C        15.04906888587980   10.81641494369107    7.49191608006384
H        14.66534695276537    9.81078777697255    7.58483923442082
C        11.76535505021730   10.94872201254976    0.02692806724188
C        11.00992742087835    8.70202027914537   -1.26719516913689
C        11.13335855073369    7.13241567427936    0.96149117462573
C         9.67366904960805    9.40096041567046    0.85821279028729

