31
CSD_code = DUXFEJ | q = 0 | S = 0 | Stoichiometry = C13H8N2O6SW | MND = 6
W         9.39364101937054    4.31904608079084    6.97608927230195
S         7.09067784909466    5.60063116380748    2.91711930442250
C        11.02600121717035    4.22792976764252    5.83182411903028
O        12.00681386573108    4.12231272430716    5.25046821780680
N         8.02737865225993    4.64498170037646    5.14819478922854
C        10.55291633767622    4.02914085960182    8.54963014189659
N         9.34232079292562    6.32731166312045    4.18077038330220
H        10.07262770406818    6.18937104016191    4.86561239512006
H         9.52126313172867    6.88599608037637    3.36611300825222
O        11.22994862695497    3.86349612364618    9.45751889000295
O         9.63468944280905    7.39359585454615    7.55864561252827
C         9.53338784686084    6.28702458613843    7.28866854890102
O         6.93934887763045    4.44356404078521    8.93102270223774
C         7.79546724011546    4.38284798804808    8.17971258714901
C         9.27640048559130    2.33884501060851    6.71448799643661
O         9.28678937284468    1.20312173681248    6.60552934716260
C         8.28129209115979    5.50728051238830    4.21043628911502
C         6.84301341574768    3.97518465712797    4.91496821239579
C         6.26308750923963    2.98883020880543    5.70176129481198
H         6.74683267393644    2.66747024113074    6.61145353083451
C         5.06481357842138    2.41556957476591    5.32159673526776
H         4.63910714625836    1.65280523227742    5.95281284863411
C         4.41373943789922    2.80883671342388    4.14948808672588
O         3.23783233575496    2.29793022699254    3.70615145236501
C         4.98090597306781    3.79729428983541    3.34496102862040
H         4.47940766850615    4.09976445639307    2.44109967659283
C         6.17509991613640    4.35872373841683    3.73652732884054
C         2.60624829778129    1.29079826933591    4.46217271136629
H         1.69775243693721    1.04294009365740    3.91602271847177
H         2.34097377730131    1.64599854818296    5.46264207404301
H         3.23342127902378    0.39785681650544    4.54479869612857

