69
CSD_code = DUXKEO | q = 0 | S = 0 | Stoichiometry = C26H26N16Zn | MND = 6
Zn        6.83126570107173    4.55589665007467    4.81172309797076
N         8.54475973268791    4.86315503819015    3.76247162817576
N        10.68577898810145    4.67058565625531    3.10610627490213
N        10.94596522021654    6.03309956558305   -0.12612043566703
N         6.81565123999190    6.36881785926749    1.04923136421966
N         6.17796450283785    3.52387821289314    2.97044180574189
N         5.72622242496667    3.41854175498676    0.81882592702541
N         7.46190074201385    2.57635209581006    5.56222884038839
N         7.89819430111793    1.10617959391067    7.14101440722013
C         9.78532178373990    4.45040583126045    4.04418595957317
H        10.03283883539843    3.95925788246714    4.96526139697242
C         9.99667250253179    5.27383696846529    2.11130378757743
C         8.65209019840870    5.39800798405958    2.51200409642444
C        10.53995326131226    5.68611011249512    0.89122645906930
C         7.62482935631376    5.93641186438689    1.74828839532832
C         5.40014618012766    3.95413468683909    2.00550199973555
H         4.59580610938402    4.65066338430942    2.11789606233839
C         6.78790872581116    2.59310435807407    1.04271773746508
H         7.25892222000268    2.04061889183360    0.25630467764770
C         7.05175654531718    2.66296334879431    2.37727535868304
H         7.80737288806947    2.15847730505362    2.94300342602800
C         5.16181767016134    3.76947977419955   -0.45317646159786
H         4.07810471554915    3.85103086174675   -0.37104361094837
H         5.41135362784972    3.00595963972896   -1.18753030310771
H         5.56680276654800    4.73015885042543   -0.78105984360757
C         8.23680758363217    2.27628415353227    6.57750296446620
H         9.04703055767297    2.87369639043610    6.94005000574918
C         6.83115537110319    0.63000624402805    6.43859530887493
H         6.35063544556778   -0.29416184855933    6.68470684273789
C         6.57689500030603    1.54524753045625    5.46231328312949
H         5.82099243680102    1.53139462959015    4.70480321035375
C         8.45663754089512    0.54830653255435    8.33957198857234
H         8.04599696936067    1.06519048181949    9.21057655801931
H         9.54004402499493    0.66611280804716    8.33619409354817
H         8.20905661921734   -0.50984421186958    8.40083606715391
N         5.11644109968602    4.14704701705012    5.81928967860576
N         2.96525463043730    3.62840080240794    6.21272410085329
N         2.69701772488881    2.62474114976903    9.57246498607934
N         6.84852929634465    3.53891177154280    8.85988864114288
N         7.55477561332901    5.67295246164966    6.54796230326261
N         8.51496519972233    6.26710510287172    8.43395632543810
N         6.13718779853177    6.53932274314273    4.19686072924391
N         5.21553038844295    8.21219391733133    3.10827595313962
C         3.87073319212637    4.03647161590122    5.34515829590853
H         3.62291743155705    4.25163518113765    4.32387096530485
C         3.65629452449853    3.44224881495258    7.36004292949856
C         5.00707356182582    3.76395910500886    7.12407090296154
C         3.10758642826707    2.99540972037341    8.56543043533860
C         6.03769478628230    3.66934704380860    8.05005165890189
C         8.64454992931451    5.60401517995969    7.27394996023028
H         9.55209695590708    5.11719822659771    6.97957591957381
C         7.25901123905249    6.79631866067993    8.44371166295612
H         6.88749093837452    7.36932952779282    9.26758420192467
C         6.67911190003263    6.42391399539477    7.26876771470205
H         5.70032693973294    6.64959056317328    6.89969031669912
C         9.46903896248723    6.33628587330423    9.50339508509360
H        10.44959035101852    6.03785168965593    9.13753494463350
H         9.52525772324129    7.35358901553540    9.89044104850584
H         9.17227733330383    5.66671692456947   10.31309369105912
C         5.05895300305987    6.96710060814650    3.58533790034084
H         4.14043460143891    6.42266495385437    3.50074266585250
C         6.47753628327142    8.60305495126677    3.44237972754621
H         6.86979584180266    9.56050925600743    3.16929183348887
C         7.03341138304717    7.55971339189560    4.11919563473303
H         8.00856578852516    7.48139600041614    4.55288714801387
C         4.28283650467325    8.95670243012245    2.31149059967534
H         4.55565394430476    8.88910903345075    1.25588415181604
H         3.28136310176448    8.55142131267244    2.44635425942046
H         4.28934381083271   10.00481107754669    2.61081125759387

