43
CSD_code = DUXPAO | q = 1 | S = 0 | Stoichiometry = C12H25N2NiOS2(1+) | MND = 4
Ni        9.04579117860118    0.39426741808596    2.96010602354826
S         7.83089219538307    0.60893281029285    1.15249573846090
S        10.63757527900110   -0.97145435487959    2.25350780908940
O         6.30594241629935    3.24359330919227    3.53290376740073
N         8.04526667673648    1.80166518122525    3.64725044609492
N         9.95702538375555    0.49313640345829    4.73132558569904
C         8.66886228597448    2.05036078851203    0.42962391977659
C         6.36557714958867    1.38280630798145    1.98370900998668
C         5.52020683765430    2.16220550690484    0.99773341651706
C         5.59626240976694    0.22310233641733    2.61175710375849
C         6.89989145722528    2.26555439735633    3.12913270989088
C         8.59413615859114    2.47077579071115    4.83035865587448
C        10.01562718635418    1.94018631046707    5.02642507935028
C        11.22908354198107   -0.23511412505368    4.76240030260832
C        11.08793478972853   -1.55203311424956    3.98028010756324
C        12.40789299286393   -2.30221094454835    3.92538673749588
C         9.96081847323030   -2.41100229287685    4.54017533953494
C        10.00338809367649   -2.45485227845423    1.43362645167850
H         8.59212591698346    2.89837152178096    1.10464246067877
H         8.20043258628390    2.27552738793262   -0.52482402706006
H         9.71103801672574    1.78608169260440    0.26756983932031
H         6.26219591060323   -0.36014253803772    3.25626121682818
H         5.18068652536535   -0.42847041984032    1.84638858879446
H         4.78246515665306    0.61257280647036    3.21899859317637
H         6.08010262073764    2.97442876064070    0.54114740541152
H         4.68932700290699    2.60743606832746    1.54160257256638
H         5.12605981663802    1.51138207021330    0.22087723188368
H         7.96693730121305    2.24304243073431    5.70127190049005
H         8.58458587054223    3.55520900077862    4.68443771314483
H        10.69486370164922    2.40965733427399    4.30810318458572
H        10.38288991561063    2.13035864341872    6.04081872955525
H         9.32647530532874    0.07998519298698    5.42570708020431
H        11.54843096055791   -0.44418720911051    5.79046118641050
H        11.99510513260568    0.38358391383436    4.28496823713916
H        12.70437646589549   -2.60734117651369    4.92649759373448
H        13.19361759973869   -1.67591029261823    3.50982832364062
H        12.32318457950451   -3.19864294993970    3.31658513756844
H        10.09083693916379   -2.54098593697676    5.61332194583431
H         9.96446772599852   -3.39954249450089    4.08860458983837
H         8.98214999442615   -1.95129377036218    4.35633818907050
H        10.77003241139435   -3.22349365408143    1.45716895533186
H         9.80859831210302   -2.17124851261595    0.40321352939327
H         9.08633972495727   -2.80139731994081    1.89791161813640

