83
CSD_code = DUXROF | q = 0 | S = 0 | Stoichiometry = C48H28N6Ni | MND = 4
Ni       13.71520973525745    9.12599481280755   11.27573817427357
N        12.79013557583315   10.78301707936517   11.75035163107450
N        14.48499569329036    7.37148482953735   10.89781195730836
N        14.83272136533123    9.28057304465215   12.87431273659577
N        12.74718710354639    9.06996583785843    9.58175449711192
C        13.96766015703701   11.36619746726850   13.83595240689771
C        16.02996628389709    7.14241692969793   12.78899802981272
C        12.92228215793796   11.48707259460125   12.91870685061717
C        11.40133533806825   11.11376541132534    9.76586849673004
C        17.03446870664764    6.27957219880803   13.44641084168529
C        11.72819340334695   11.33965458850428   11.10074867862156
C         9.27780231639236   11.55868128830980    8.53003548629884
H         9.03688965059740   10.50788185251753    8.60509602524429
C        13.50124050250977    6.90942263906231    8.69682618237220
C        10.46842280857291   12.02658189279697    9.08017450254059
C        14.89866808687272   10.34212855115036   13.73801214073973
C        11.10042539243976   12.34695460930907   11.92822234640901
C        14.18402327027503    6.54440579301943    9.85191918513919
C        16.63306757886944    5.18966781342426   14.21120903224877
H        15.57887918762443    4.98334110187457   14.32742332822539
C        14.05911354634443   12.34829599396143   14.92930603733359
C        15.31539145743325    6.64521783728990   11.70799720234296
C         9.87895496186532   13.04116463870363   11.66581593528106
H         9.11358295587777   12.52938180174184   11.09768351696146
C        10.77208288350681   13.38396510366986    8.98734726964599
H        11.70603495825497   13.74725676401906    9.39214212497981
C        14.76696913650167    5.24929661741196   10.05070006451614
H        14.63937318499775    4.41340923763997    9.39154829447212
C         8.39901034579391   12.43594772903248    7.92092645436603
H         7.47172497463286   12.06594928439879    7.50920544720116
C        11.96798840170813   10.06378499635009    9.05470421824980
C        17.57481187615832    4.38407578435275   14.82573572833650
H        17.25381539209791    3.54186900010016   15.42104191995122
N        11.26953850580287   15.79363797661976   13.34487764422826
C        12.90054085966171    8.15749013714328    8.57605936276610
C        18.39165134786918    6.54808560914686   13.30445887794211
H        18.70524357806066    7.39017889338288   12.70451964020510
C        11.87866127958641   12.43828591364672   13.05454987004580
H        11.70973441503853   13.04937814952105   13.91866880698554
C        13.42016281028631    5.96063627389640    7.57139958557091
C        11.71289514365482    9.81807870983138    7.66506307585142
H        11.17240787668173   10.47788201684994    7.01536954991340
C        15.83109197501947    8.43407131806303   13.26434078403358
C         9.60090833065058   14.29380738738256   12.11419552423542
C        15.47762792597772    5.31486248032609   11.19792421321386
H        16.06714833164745    4.54969750998098   11.66314446674274
C        10.52707695341526   15.10706568944513   12.80325255405204
N         7.34363506031000   15.38526662462792   11.60372840136309
C        12.28675501243045    8.63076705463073    7.36964898733184
H        12.31402410759241    8.11867268907965    6.42808242893286
C        18.92489080673160    4.65514840726949   14.67878518611822
H        19.65904663893717    4.02421410438742   15.15729481394022
C        16.58415402245136    9.00434267293966   14.34297872082539
H        17.42895459723837    8.53954897755793   14.81168326638244
C         8.70258328343496   13.78548448745602    7.84283442518993
H         8.01240324900021   14.46894216164165    7.37260457540044
C        14.11676701567292   13.71169153438713   14.64850003347326
H        14.11915347697722   14.04395801070983   13.62095726411111
C        14.18789378490232   14.21207446045581   16.99284145673722
H        14.23446462986839   14.93435358528516   17.79407731433119
C         8.35453764873076   14.89792749967494   11.83869190841481
C        14.12865096131098   12.85854253157811   17.28146251103239
H        14.12572963676338   12.52342100914497   18.30843297595917
C         9.89418634964681   14.25558163500397    8.36942369366427
H        10.13816667363467   15.30534277490456    8.30289650741370
C        16.01502255561459   10.19647732770920   14.62664585726914
H        16.30974732568259   10.91877034566918   15.36182942214475
C        12.18250249546347    5.53734876375956    7.09482746416176
H        11.28121737596844    5.90077591491642    7.56689538450554
C        14.06600743990621   11.93085540465378   16.25811358525638
H        13.99871095829862   10.87610542677660   16.48309396417063
C        14.18243419118844   14.63587311030944   15.67428403970035
H        14.22135299823636   15.68885609361631   15.44137432967136
C        12.10648567175909    4.64662210602309    6.03987412449932
H        11.14108649431369    4.32008201435551    5.68199064295039
C        19.33083296948491    5.73751513408782   13.91620498942274
H        20.38288192799878    5.95138934909712   13.79713407526817
C        14.57845451229181    5.47902047610705    6.96770479788284
H        15.54093114476221    5.81521030667864    7.32530391866681
C        13.26346860739307    4.17397466347326    5.44300027333794
H        13.20275653201561    3.48077130937567    4.61730324574503
C        14.49857004968253    4.59403503875218    5.90816717546717
H        15.40352207143146    4.23108380410167    5.44337753989028

