48
CSD_code = DUXWUQ | q = 0 | S = 0 | Stoichiometry = C24H17BrMnN3O2 | MND = 6
Br        2.17350992572768    3.03051886646237    4.56035550419385
Mn        1.77638349411047    3.44185516185421    2.15122536841597
N         1.69345915397601    5.39887569458143    2.56097123743596
N         3.58952160637126    3.86039642862942    2.00377856220471
N         2.50273214871012    1.61478067130485    1.77966983922276
O        -1.02306869170316    2.73713461738459    2.66566772776218
O         1.03275439185637    3.86114056326770   -0.64375834111094
C         0.07799400552716    3.01534897162690    2.45639968050125
C         1.34231842281436    3.69915452965005    0.45723430511285
C         0.62641288804870    6.13804682883429    2.87990175271607
C         0.70164871519767    7.47717723180732    3.20629066465718
C         1.94154140466453    8.10557958561932    3.20602413141868
C         3.05360622070714    7.35730559975048    2.87896694762998
C         2.90579262506322    6.00862715260605    2.56332207347017
C         4.00978042573566    5.11425379932569    2.23694891707886
C         5.35791382961526    5.44663167832599    2.19623664926195
C         6.30342244982862    4.45646043848567    1.92781903496903
C         5.84901733574161    3.15192215868157    1.73373435913564
C         4.48640938235238    2.88599908936985    1.78269981993661
C         3.85320972662047    1.57954003613434    1.65146518341000
C         4.54454556152097    0.38815143357223    1.44400093398748
C         3.84674497783268   -0.79977089077810    1.37079342708483
C         2.46398836187189   -0.76083162126693    1.50749236208258
C         1.84194712892223    0.45521699774178    1.70663324460030
C         7.73319727607018    4.77552610657865    1.86905062212665
C         8.17372278477665    5.95366220800928    1.26943872479392
C         8.68131373695877    3.90849353981316    2.40739644084247
C         9.52089928494570    6.24818870486665    1.20489557494663
C        10.02662311100928    4.21424310774116    2.34823752187812
C        10.46842041383286    5.38510289620910    1.74371134679271
C        11.92578607521505    5.72279320615232    1.69399673804639
H        12.53559965630415    4.82362066570501    1.73762474291799
H        12.18988337446544    6.35144321108965    2.54522202234095
H        12.16628186928326    6.27118326349541    0.78596169225995
H        -0.32896379017553    5.62700990559306    2.88045480599481
H        -0.19550921170278    8.01702304309603    3.46203034726159
H         2.03438236328018    9.14994664993540    3.45997045533710
H         4.03451046803948    7.80464986998635    2.87486887618953
H         5.67973796090470    6.45428978759461    2.40230979109642
H         6.55378614783285    2.36075296146853    1.53718381924797
H         5.61840752562659    0.40075173324474    1.34942272996991
H         4.36302237483271   -1.73437897778586    1.21664281061811
H         1.87526755419385   -1.66268883226142    1.46538302186385
H         0.76594577875905    0.50757742290299    1.82228249433425
H         7.45658376651466    6.62938015852624    0.82564470416228
H         8.36014273541874    3.00265157689516    2.90058556549095
H         9.84472238342568    7.16184663980224    0.72720361037075
H        10.74675086907975    3.53331612836930    2.77890815595053

