44
CSD_code = DUYFAE | q = 0 | S = 0 | Stoichiometry = C16H18CrO9 | MND = 6
Cr       -2.34000618736103   -0.75158584030143   -5.79454901950827
O        -4.72232979993697    0.14930480713554   -4.16991081850812
O        -3.04053257920639    0.56422349616928   -8.38917329464957
O        -4.42769482422509   -2.77477411978838   -6.45804624425347
O        -1.43230092251645   -2.92153523230204   -3.92744129729467
O        -0.57752470671278   -1.99188627722554   -7.92391680857922
O        -0.81648008504621    0.77246384668037   -5.04313192894803
O        -0.81696313489612    1.99725286191652   -6.94138782887086
O         2.87855097801938    1.25779431816116   -8.46959369775692
O         3.80619558325415   -0.29155881068634   -6.99062457221106
C        -0.81859990175142   -1.09700723194667   -6.96421574493595
C         0.29936089892027   -0.16516686859368   -6.86724338535803
C        -0.00480579167216    1.13062316454405   -6.14398693808863
C         1.25064237278456    1.85851188117332   -5.73176082994249
C         2.44559665063019    1.59300639158590   -6.22784634666283
C         2.68862976100933    0.52260590496552   -7.26197184541495
C         1.52341776041887   -0.42075886456334   -7.35372918011593
C        -3.76436261976805   -0.13905796079011   -4.74193809813702
C        -2.79876981870877    0.22242583897756   -7.31762788192042
C        -3.58092795617487   -2.00888828980322   -6.25947850301613
C        -1.75853738731150   -1.99561272408453   -4.52603205028634
C        -1.48500164447446   -3.05802028802967   -8.11653860685949
C        -1.21488286385152    1.84817809560134   -4.19671246336477
C        -0.36420866872639    2.23783649501128   -8.25664659901493
C         2.98777350968573    0.47574342963985   -9.64414880565782
C         5.04678781074436    0.37058872358790   -6.83170526948201
H        -1.65922884258185   -3.59853743191702   -7.18245831472436
H        -2.43926409069099   -2.69078898592998   -8.50319630780146
H        -1.02233785805048   -3.71876811901579   -8.84918439527431
H        -0.40058470838546    2.12936962234288   -3.52176678605801
H        -2.05171080501692    1.47585749203418   -3.60861560305734
H        -1.53596466624239    2.70774724706038   -4.78768753613688
H         0.68841334036100    2.53480892909774   -8.26932736945880
H        -0.98456340816644    3.04870363217453   -8.63296502221943
H        -0.49557195903191    1.35602066020211   -8.89101828310054
H         3.38518001559401    1.14373827326534  -10.40621868313882
H         3.67193070287061   -0.36314831366078   -9.49427770993389
H         2.00991872014523    0.09914025962066   -9.95861946446558
H         5.17464524404737    0.73070598714723   -5.80607833297671
H         5.81268039003583   -0.37326466275226   -7.04635444237746
H         5.13989971280379    1.20480424443990   -7.53158543966420
H         1.11402328382931    2.67879345173474   -5.04397657250757
H         3.30584519255993    2.18026987650069   -5.94748427167004
H         1.72976330274333   -1.36565890940445   -7.83182740657461

