46
CSD_code = DUYMEP | q = 0 | S = 0 | Stoichiometry = C21H20MoN2O2 | MND = 9
Mo        3.31237428071368    5.12316242743328   10.46815672931506
N         2.37592877931137    5.62235417351545    8.57771099867681
C         3.66871940095788    6.18902643121859    8.58919692477501
C         1.87753521152505    4.78822658357300    7.47232943227669
C         2.97117470918435    3.96502594139026    6.79135918081579
C         2.85977509431846    3.30710654029217   10.04631128786308
O         2.64740559258580    2.19183277939894    9.83994155778091
C         4.88271297036627    4.16785053211794    9.92810832618717
O         5.80739149678047    3.55375636911605    9.61182742197244
C         1.16052342341196    5.65103564148337    6.45402298636988
C         1.78331001205912    6.76560374554293    5.90401469491001
C         1.12184742073983    7.55397033387761    4.98007629622976
C        -0.16691460182712    7.23438841823037    4.58778088738521
C        -0.79214350918219    6.12309559277551    5.12603441811727
C        -0.13288093098311    5.33921243426114    6.05663364384762
C         3.67417673015429    7.64216718177996    8.72417353050631
N         2.48612284443221    8.21082415120944    8.97529215617220
C         2.42556655834996    9.52111380381498    9.13048988523498
C         3.52948892926579   10.35128496746758    9.04629366285369
C         4.76491535798037    9.77125585374688    8.77706805145987
C         4.84319169979304    8.40494308543466    8.60650683764381
C         2.08182962740489    6.70388773758476   11.66076159537795
C         3.44036906066258    7.05786125991896   11.81022002603668
C         4.09627822675255    6.01118192740487   12.47959552559932
C         3.14312607969254    4.99422404357283   12.74865735974773
C         1.88760106386049    5.44267921204425   12.25326302699803
H         1.71142702280202    6.39263266242241    8.73363702128199
H         4.36497779959550    5.81487450459854    7.84129821128676
H         1.15166235251942    4.09134023259808    7.91468735643428
H         3.58181530520317    3.44594847962365    7.52927981549066
H         3.60666230479704    4.58986703581843    6.16799685124653
H         2.50160174845540    3.22354147112013    6.14992213129070
H         2.78891772850326    7.02559222263348    6.19953205417991
H         1.61564525782634    8.41976487057798    4.56411207724809
H        -0.68164542474931    7.84936284987083    3.86485152085480
H        -1.79684872666255    5.86742512185059    4.82386950425237
H        -0.62512968686477    4.47422636019320    6.47761477485212
H         1.43768840202183    9.91911531059188    9.32930091452687
H         3.42967938930188   11.41621575667727    9.18255876655502
H         5.65076345774163   10.38493756747841    8.69830454126097
H         5.78231354174394    7.91447858974488    8.39873237706835
H         1.29934754205637    7.36472893356199   11.30819254455938
H         3.86892779470923    8.02472704968486   11.58082547875670
H         5.11290615397969    6.03402199458362   12.85228242221189
H         3.29310465032102    4.15253299422478   13.41560687859002
H         0.93305785833005    4.96939482400959   12.44406831387314

