90
CSD_code = DUYRAS | q = 0 | S = 0 | Stoichiometry = C45H36BBrF2N2P2Pt | MND = 4
C         1.10699687087050    6.15242773761600    8.10191404766559
C         0.29289280745503    6.91224297831672    8.94134388140387
C        -0.66510016203882    7.89510277793136    8.61878535566641
H        -0.96973175357764    8.16201797125303    7.62203398088971
C        -1.15982527733564    8.38638647682299    9.80963425605404
H        -1.90837506101389    9.14284964773867    9.94289457042765
C        -0.50423684015744    7.69689989493086   10.83010359473808
H        -0.61757604514907    7.79207425951068   11.89308317229326
C         1.98070389974732    5.22968798363743    8.68135293438663
C         2.91122386992296    4.36588197605318    8.06942202414213
H         3.06371750290411    4.26374851258197    7.00932153167971
C         3.55740081165033    3.68365418571405    9.08186830785321
H         4.32615383459317    2.94241911265418    8.98080613215698
C         3.01346045707998    4.13913665360530   10.28248784267497
H         3.25335736987602    3.85033565592590   11.28786165818989
C         1.74482876292386    5.15203040365101    2.99812963672601
C         2.11653874496063    5.10982451928283    1.65657558350740
H         2.00658669878516    5.98989520892881    1.03741943169660
C         2.63485557388104    3.94510480946077    1.12143844780369
H         2.91916611170633    3.91524361644876    0.07957003482361
C         2.78910270127640    2.81870551849152    1.91492166135696
H         3.19434305649731    1.91243940342241    1.48988169821386
C         2.42366817591773    2.85597109064509    3.25005399409915
H         2.54066959327151    1.98034575104263    3.87079949384977
C         1.90385102143965    4.01859513434634    3.78955618144345
H         1.60698105561455    4.04624601814117    4.83340313009321
C        -0.63928861668021    6.75411398255926    3.11051020249261
C        -1.52191756013959    7.58926069615720    3.79091259740390
H        -1.18027102980095    8.10931772384955    4.67839560820252
C        -2.82431185755131    7.73277871784555    3.35643683079837
H        -3.50629779748573    8.37594911368600    3.89256751582591
C        -3.25733504637828    7.03419997616337    2.24066665988374
H        -4.27816632780419    7.13546067910681    1.90381678981730
C        -2.38684837993080    6.19384223775206    1.56842377974601
H        -2.72901739730603    5.63850400012297    0.70756896676352
C        -1.07889941536403    6.05003057154150    1.99838495996498
H        -0.41159910738968    5.37833183546000    1.47841760941149
C         1.89332319140975    7.96410294814263    2.82523193705351
C         3.27259650509763    7.89893502398658    2.64320498405040
H         3.82542382080586    7.05236442284739    3.02530097027878
C         3.93731234045667    8.89923159426481    1.96111834278890
H         5.00617838382326    8.83109665915888    1.81957565574541
C         3.23521268317054    9.98244520082567    1.45848694748008
H         3.75371303761921   10.76190084250242    0.92052963513715
C         1.86623563860335   10.06066309877886    1.64706171139896
H         1.31385521488183   10.90305622686561    1.25752861400588
C         1.19736406800681    9.06104971407396    2.32993304020306
H         0.12759913916455    9.12771293085247    2.46817130545502
C         2.59883934065298    9.44010002429781    5.65991038999561
C         1.27005813513279    9.85663877051879    5.63558287195241
H         0.51707531720094    9.21371184113007    6.08157037259853
C         0.92132807728646   11.06079445798579    5.05703075143952
H        -0.11009706198666   11.38095178250337    5.04703243867729
C         1.90294093509945   11.85413840213381    4.48495123456871
H         1.63783655234347   12.79664041072392    4.03005516407076
C         3.22217149589511   11.43421527731098    4.48658359415348
H         3.98346104733290   12.04769406700856    4.02806319949554
C         3.57586045054280   10.23095386588209    5.07228717434134
H         4.60567155531430    9.90624024695083    5.05905349873911
C         4.53199373592185    7.28357420842552    5.97163689234808
C         5.69647608738661    7.96598916876793    6.31387983625095
H         5.64013600291649    8.85010214977319    6.93429313666083
C         6.92129161090539    7.49467060281061    5.87827280554816
H         7.82434573839509    8.02574932456765    6.14093130862707
C         6.99484989923716    6.33999389526537    5.11378553879925
H         7.95513661878145    5.97611503572984    4.78031034361691
C         5.84075871958657    5.64635158442271    4.78955025470271
H         5.89528705076478    4.73923321926050    4.20561241474160
C         4.61352996086647    6.11825445346166    5.21911111376897
H         3.70324237299846    5.58139889158992    4.97834975695017
C         3.17737540557394    8.35956468740034    8.22723295836375
C         2.45129578534499    9.40407201154153    8.78995395440317
H         1.78308791267334    9.99165255282541    8.17591944751284
C         2.58255557354354    9.68858504066417   10.13684679619346
H         2.00877219131118   10.49434412330118   10.57000646067138
C         3.43439933209512    8.93723105389236   10.92818118521639
H         3.52226349067639    9.14735256325048   11.98200170326428
C         4.15698432408178    7.89481549146953   10.37162368842932
H         4.80608022364126    7.29713684212905   10.99205554148698
C         4.02363292552668    7.59713392625975    9.02951053715723
H         4.57016971046388    6.76837802670005    8.59958128161255
B         1.23361420292007    5.81598631019448   11.08964163450072
Br       -0.85164866702232    5.02081130590466    6.01512462747173
F         0.44623997026102    4.93847887554169   11.80497515101182
F         2.06855454642265    6.49332679926192   11.96683910180430
N         2.07695052881540    5.05502824519584   10.04506716594351
N         0.35334843652882    6.81910770771236   10.31598682502715
P         1.05336240947047    6.64592386836674    3.77449707119383
P         2.89552831723245    7.85669011990682    6.50460885984573
Pt        1.11682447001897    6.45855327608609    6.12428466931717

