22
CSD_code = DUYYOL | q = 0 | S = 0 | Stoichiometry = C4H8Cl3MoN3OS2 | MND = 6
Mo        6.67873405150777    5.00858656350880    3.42530483321521
Cl        6.49959230873200    3.12958080028652    4.88721981869338
Cl        7.23188976772886    6.76902934043526    1.91882602456382
Cl        7.99702673784592    5.99700554155478    4.96615123106824
N         5.03019708087733    5.62968673518828    3.78486983020806
S         3.55087919132714    5.50823618153253    3.26597469532727
N         6.07756919358661    3.97446661717916    2.03747483856127
S         4.72016342605260    3.69675717078294    1.34173385123891
N         3.55037034451849    4.50291622992427    2.03460437054999
O         8.69131985886490    4.16941565725971    2.79461952163974
C         9.01368146483517    3.85685516817013    1.44684584460433
C        10.53360801679250    3.66298080073500    1.43625300286339
C        10.85626228221450    3.23871986823919    2.87980687593719
C         9.50359566756786    3.32422973913676    3.60204907564436
H         8.49192097718481    2.93456073488356    1.15406720360290
H         8.67367359068350    4.68538821461401    0.82121459588564
H        11.03024167239657    4.60024120076127    1.19118651377114
H        10.83152012298269    2.91382864917856    0.70668654033007
H        11.57653403685619    3.91867886901473    3.33059361098087
H        11.25982010393680    2.22998286724904    2.93077950644552
H         9.03053445977818    2.33445446384388    3.67878747124103
H         9.57036564372289    3.77169858652197    4.59845074362572

