45
CSD_code = DUYYIG | q = 0 | S = 0 | Stoichiometry = C20H17N2O5V | MND = 5
V        -0.41063547646466  -13.36154700041388    9.45085434145415
O        -1.47396909884749  -14.53455367725906    8.78820375982286
O        -0.04916411481706  -11.54124274802781    9.35683898339628
O         1.80713119253035   -9.88426681243063    5.97017243985730
O         0.95618389346945  -14.01591498219957    9.64080581125228
O        -1.18677762577563  -13.08083029531924   10.84500090217417
N         0.01022042629119  -13.04795352020422    7.45416263335903
N         0.51733275284403  -11.82402428727112    7.20453007473240
C         0.54754410513881  -13.56711882226856    5.14422624320972
H         0.38467154740031  -12.50749029033037    4.95958121390354
H         0.06493863601867  -14.14509446082714    4.36261573387961
H         1.62099875236159  -13.75231519235709    5.11481987465776
C         0.01183704963481  -13.92995265424681    6.49965063007340
C        -0.50331044407352  -15.25505421815639    6.75274065558923
C        -0.29197772647372  -16.32362362581749    5.86906588498503
H         0.32376078998644  -16.17748271117044    4.99552537193322
C        -0.82428950781017  -17.56878018690415    6.11229418878968
H        -0.63640283119860  -18.37904814142653    5.42485627531510
C        -1.60394569234688  -17.78533907242961    7.24521210276772
H        -2.02768594870868  -18.76104706369714    7.42989074111564
C        -1.82823680056942  -16.76222312143432    8.13694936721687
H        -2.41705014421802  -16.91296960667791    9.03056257818971
C        -1.27022818880647  -15.49099764714903    7.92637754960208
C         0.49688016371662  -11.08646754366228    8.29096760250439
C         1.07818726461838   -9.73969413079218    8.27861767170384
C         1.01926426370766   -8.98858612001068    9.43516589566265
H         0.54795221972243   -9.42128835096554   10.30702071839474
C         1.55417032639992   -7.69487516749111    9.50556140536796
C         1.50214471725978   -6.92017638331844   10.68522288363215
H         1.03287877413424   -7.34341811763398   11.56163530593777
C         2.03606715088321   -5.66377278212727   10.71704139900285
H         1.99628841680747   -5.07495402637234   11.62156244110213
C         2.64420536128887   -5.12429896785935    9.57038715886232
H         3.06145972681347   -4.12879827148082    9.61438268937176
C         2.70972012892900   -5.84740018466171    8.41309693604587
H         3.17718544686979   -5.43434738894698    7.53119010053454
C         2.17073169883954   -7.15040790542014    8.34510337007323
C         2.23010546134469   -7.92404887017912    7.17486282742572
H         2.70113997059782   -7.52348079458710    6.29045877931956
C         1.70674214995803   -9.19636690722500    7.11937637634002
C        -1.35852195072668  -12.73898355599003   12.15000023693458
H        -1.00474356519289  -11.70462524947554   12.29554758645834
H        -0.77578869022284  -13.40702284151076   12.80225491498932
H        -2.42124400849605  -12.78807361261608   12.42882243713074
H         1.41662942718160  -10.77344268965377    6.10988390593071

