77
CSD_code = DUYZII | q = 0 | S = 0 | Stoichiometry = C22H46CrN4Si4 | MND = 4
Cr        5.82750678059837    5.28565602258696    9.63188531360768
N         4.48428266682590    3.88387624672853    9.94940159753332
N         4.36367554868731    6.55796968985943    9.46367718588580
N         7.15868085810025    6.73337191193197    9.67187266089517
N         7.28776154992129    4.02478415864906    9.89271103262051
Si        3.39593195873737    3.85783436056011   11.29668072000850
Si        4.44306527063284    2.63358195559256    8.75077813301745
Si        8.15547019766950    7.11052937552795   11.03741691648531
Si        7.29145237524493    7.63839835029334    8.20039939452785
C         1.62340188970894    4.46873980771509   10.88332184174669
H         1.60598477088565    5.53980139350184   10.70909186070395
H         0.94866107627273    4.26005028961028   11.70785843660375
H         1.22113271525937    3.98535255166412   10.00065031375475
C         4.05370808934479    5.01087495071009   12.66921222228570
H         4.90628986901747    4.58650821649528   13.18784209361073
H         3.28208055372445    5.19225991368054   13.41066997906487
H         4.35367516665304    5.96842380911865   12.25747227302882
C         3.20050733262632    2.12065012489617   12.08064554397252
H         2.75635819083481    1.41749160283645   11.38510815169734
H         2.55886959456803    2.16771248817415   12.95462256700739
H         4.15368816912510    1.71064968719995   12.39913428240841
C         2.65657734122028    2.20055988277891    8.20558513457567
H         2.08296930145048    1.78836989336433    9.02767792676829
H         2.66827334598202    1.46162701783241    7.41088805742566
H         2.12080953575408    3.06851715470190    7.83493276217459
C         5.35489525260796    3.17904769701745    7.15758263349595
H         4.95937440090731    4.10441792808876    6.75099543742289
H         5.24943457236082    2.41845541790605    6.38954444051836
H         6.41765681282851    3.31242481791911    7.33709125010229
C         5.24961859202276    0.96902305873470    9.26663129492216
H         6.33308849961434    1.03150735947843    9.26363742786321
H         4.96510347251526    0.18151368228245    8.57542217684757
H         4.94115225862202    0.66017885009263   10.25854716869271
C         3.30600233567303    6.34135642007087    8.65663373165202
H         3.30624957315651    5.39359564738856    8.13547632136192
C         2.26513790006605    7.22935123489624    8.49294123858507
H         1.45575183788559    6.98713755754012    7.82133753414971
C         2.26591471183695    8.42506478028083    9.20187244916433
H         1.46236153293515    9.13729852646613    9.10494458758945
C         3.34554347234161    8.65806941562306   10.04848823109166
H         3.40283489834188    9.56551979381668   10.62965504506594
C         4.34994669096567    7.72113861385342   10.14572805185378
H         5.20459014525338    7.89064208069508   10.78488396408757
C         8.39859830585449    4.03640929922308    9.12932472128072
H         8.44214650442444    4.82009625513663    8.38511868183043
C         9.43905471568779    3.14345694790149    9.26658032843051
H        10.29324603684761    3.21229792726050    8.61049829121908
C         9.37956662329102    2.16785555611845   10.25500511002593
H        10.18058968908158    1.46018832343710   10.39622114463512
C         8.24418386122174    2.15054446606465   11.05951749737251
H         8.13970260257928    1.42087904361837   11.84766425914715
C         7.24487616546235    3.07397784744563   10.84791958309469
H         6.34823757912752    3.06654147314205   11.45093103191259
C         7.39855632855263    6.33800670765521   12.61101787031700
H         6.51888857144924    6.87458955679762   12.94895778450016
H         8.11890879053040    6.35460845829985   13.42271537616181
H         7.11565095484190    5.30571074083326   12.43583933116856
C         8.31279988192341    8.99148415311842   11.36590238081580
H         8.80943936370619    9.49876857238803   10.54645622724752
H         8.89322240744855    9.17336845233204   12.26468032127158
H         7.34393250303762    9.46073343718282   11.50439983031967
C         9.94645488030788    6.43060156324581   10.91083960719261
H         9.96684942128114    5.35073995394351   11.01740697644079
H        10.56723302208569    6.84911044403477   11.69709886727354
H        10.40960755525137    6.67628868951127    9.96232036074607
C         6.46731297652517    9.37267731929088    8.22155277512180
H         5.38593482214990    9.30246602279500    8.16277035351756
H         6.80389922012093    9.96098826387390    7.37333263178654
H         6.71216691296055    9.92605179431452    9.12057587281532
C         9.11426723375959    7.93336881777784    7.68405354750877
H         9.63491908454906    8.54702920912226    8.41008940132006
H         9.16255258284536    8.44442050067948    6.72791399744640
H         9.66607150681760    7.00417607003468    7.58450404833832
C         6.48367759848396    6.69842205813234    6.74058199330210
H         6.89735582314328    5.70350333124221    6.61002311123054
H         6.64729259495746    7.23974142013689    5.81339438500073
H         5.41013277091112    6.60606358575644    6.87624291433576

