85
CSD_code = DUYZAA | q = 1 | S = 0 | Stoichiometry = C42H31F4IrN5S2(1+) | MND = 6
Ir        0.15740114406923    7.94236211231908   12.63527743709286
S        -3.93957297575059    9.65409466813949   16.21357777288516
S        -6.38690482885514   12.86407399663650   11.97185233184279
F         0.81874946657130    8.57742648558896   17.97006643954835
F        -2.91846654080356    6.18183732431132   16.52675022247532
F         2.39241294893843    3.04443481954954   13.09454121702688
F         5.24676471889174    6.73810295958958   13.20180470228322
N         0.47864394859157    8.15969796166603   10.44728783811694
N        -1.32544598765593    9.42594556558027   12.04214891350325
N        -2.46736736991174   10.29404209089661   10.38080771195036
H        -2.75152106529296   10.56781465421058    9.45407050897448
N        -1.42854717960330    6.68454163436833   12.55642784830658
N         1.74729086950201    9.16648182815002   12.83918715612408
C        -0.23136106302770    7.76273956179837   14.60509302026349
C         0.50562554487810    8.27451137328015   15.66371308097182
H         1.41680425511696    8.82995834911051   15.50432935331921
C         0.08734757105657    8.06981196398490   16.96644001925696
C        -1.06522229604341    7.36825555435356   17.26912333236542
H        -1.38121480830242    7.21251560017197   18.28721095939533
C        -1.79790967832799    6.85955265942979   16.21722066841170
C        -1.40715964354647    7.02786981056791   14.88674059362069
C        -2.08494819865203    6.47414691107680   13.72296123851755
C        -3.28927983310328    5.76803813032748   13.73902996267535
H        -3.81740932400451    5.61423970342970   14.66316299391048
C        -3.80498080799601    5.25848411416241   12.56354914736504
H        -4.73405444448702    4.71062093369569   12.56734479610944
C        -3.10230387030588    5.45356166415461   11.38235074281016
H        -3.45617375472076    5.05528830716198   10.44553034140209
C        -1.92477870969246    6.17310210274598   11.43182653138076
H        -1.35035296492872    6.33649914204281   10.52958588996483
C         1.59771018563291    6.56968186354989   12.93364830718402
C         1.45039717809363    5.19090830389316   12.96202074383940
H         0.47821057915024    4.72630785141656   12.90547719607785
C         2.56261920364072    4.37340194793054   13.07519626761121
C         3.84560834198278    4.88414094898496   13.15814092906766
H         4.70402208230970    4.23880988441297   13.24247699768643
C         3.99197324332800    6.25613138441717   13.13461225683868
C         2.89911048106795    7.11982998164048   13.02733505528726
C         2.95661879979805    8.57675963682607   13.00262873612271
C         4.10823096140836    9.35258186195676   13.14437079660092
H         5.06743271545542    8.88492555671090   13.27965211658103
C         4.01639697797080   10.73104282162309   13.12047245522085
H         4.90062214696570   11.33776223530044   13.23495008194502
C         2.77021584617738   11.31867997732435   12.95277501843114
H         2.65319745784808   12.38978031970813   12.93212340224684
C         1.66984561315774   10.49534589030027   12.81762789777534
H         0.68252255564586   10.91816423358909   12.69140025764318
C        -5.07254385142209    8.93470659799915   13.76345407333501
H        -5.50627394456167    8.11801682413674   14.33619261405424
H        -5.84991139761404    9.68491971315940   13.61161324501977
H        -4.76555099148174    8.56141510059103   12.78805553218151
C        -3.91229284373920    9.51687688328053   14.48898014703604
C        -2.73258664626350    9.98781088796294   13.98131649199376
C        -1.84430046254153   10.45498724240414   14.99005839740855
H        -0.87340209651715   10.86335955956634   14.77623603921697
C        -2.35477888393248   10.36283359719598   16.24302260449213
C        -1.75610806810761   10.81579060676417   17.52444045687343
H        -1.92644785967547   10.08662256435179   18.31326952027279
H        -0.68638519712201   10.96968361880038   17.40802266829720
H        -2.20690535375139   11.75672553033801   17.84251249444693
C        -4.12902540212783   12.79105326203408   13.58774707489338
H        -4.34416778099233   13.85219192675991   13.69559022498891
H        -4.46369539757721   12.29091905144074   14.49703334248563
H        -3.05450048744042   12.65221643773426   13.50004383558934
C        -4.83071701690855   12.24656714582454   12.39719341042847
C        -4.40957203814730   11.31077164826790   11.48346978683358
C        -5.35344434988549   11.11229295360143   10.43141041825522
H        -5.21122847958914   10.40453670046025    9.63254131846225
C        -6.47534114113968   11.86352846000554   10.55765178445794
C        -7.66902530486281   11.90280253823020    9.67182344631280
H        -8.40152386569646   12.60965920947562   10.05143963622117
H        -7.38756839598459   12.20354363765047    8.66297736030073
H        -8.13370667226965   10.91904605169587    9.61152697524489
C        -2.42464407550327   10.02456004702545   12.56084724543089
C        -3.16204616917222   10.58634079023996   11.52250542493128
C        -1.36187475873832    9.58850042865771   10.72358595505780
C        -0.37000940778562    9.01731956224855    9.84997401589536
C        -0.28447385990495    9.30693949199196    8.48641112708026
H        -0.96971532290307   10.00455193302515    8.03130888335261
C         0.70017653108004    8.69575531694552    7.73428005620289
H         0.78924489581472    8.90275633351092    6.67934888054883
C         1.57168958484450    7.81319196302125    8.35968059208775
H         2.35115170688949    7.31506365721330    7.80789260087801
C         1.42061725468385    7.58031404853322    9.71611858057929
H         2.07248805821911    6.89572199635272   10.24050245133558

