84
CSD_code = DUYZEE | q = 0 | S = 0 | Stoichiometry = C42H30F4IrN5S2 | MND = 6
Ir        5.93720284753246    1.57383810210539    2.27133402915042
S         7.95993561921864    2.05031278167234    7.57583442273631
S        11.98834410782563    6.52233723624602    4.95423378017054
F         6.04372007763198   -2.47184008851286    5.88290398931209
F         4.28716739934536    1.62578389107538    7.27751358996750
F         0.72644311687058    0.39595080271941    1.30832760517935
F         3.96067570410321   -2.34808909779329   -0.64930862121527
N         6.23992154489303    2.68662528827913    0.40335315971719
N         8.97283570056386    4.40401648134853    2.04819832970950
N         7.64215158523352    2.72058488960738    2.72589516168369
N         4.98132874532838    3.02063132466254    3.29464231347444
N         6.89023451181287    0.07884193492573    1.32923088057482
C         5.68446672011559    0.62896404128023    4.03253112667907
C         5.99510281998499   -0.69056563347977    4.34566645091077
H         6.43722624341709   -1.35216722109015    3.61623640515955
C         5.73512454984211   -1.18802689531507    5.60676498016803
C         5.16475673997639   -0.41694473180829    6.60321883876206
H         4.96162899989252   -0.81810809660946    7.58207316547867
C         4.85689430784756    0.89196708973215    6.29721010669322
C         5.09704521384919    1.43766902652235    5.03585553356826
C         4.78064205351045    2.79563179602320    4.61657714848677
C         4.32165804160538    3.81771941113373    5.44786565400705
H         4.18079461910421    3.63903617472264    6.49921100294511
C         4.05785164441068    5.06727617853349    4.92216831102340
H         3.71206945590233    5.86630843245598    5.55958685388169
C         4.24442316722639    5.27423110750473    3.56279570766384
H         4.04287712682735    6.22965323464453    3.10614455673897
C         4.70622579813013    4.22357086526649    2.79492761590330
H         4.86180154178514    4.35506910261480    1.73268127776217
C         4.34376076748936    0.54201432229671    1.58859849874859
C         2.99605510270749    0.84146721560587    1.75722895197362
H         2.68308346091636    1.66693311816607    2.37848885225174
C         2.02580161762352    0.08169150555197    1.13325822522474
C         2.34103643366720   -0.99375848188687    0.32188791437531
H         1.57640106578704   -1.57690596766535   -0.16333633610024
C         3.67634195026277   -1.29829601202306    0.15569913270116
C         4.69018610206520   -0.56168908623629    0.76881003873875
C         6.12279249458535   -0.81034732323317    0.65195676351623
C         6.71436570477073   -1.85174055404844   -0.06378358287574
H         6.10586494251102   -2.55742272033990   -0.60120147192905
C         8.08981262811009   -1.98233959563531   -0.08132141360395
H         8.55326636609133   -2.78708667667501   -0.63080038732583
C         8.85937279689355   -1.06533777248909    0.61972132993565
H         9.93522246589739   -1.12933632230188    0.63585940775383
C         8.21447408036154   -0.05554405648754    1.30698820513592
H         8.78210151588409    0.67796712729647    1.86253860189036
C         7.65639647171982    4.55110238289876    6.34944132542706
H         6.84520088072380    4.69517440797756    7.06077402288926
H         8.52802715104068    5.09936820069097    6.71147333638402
H         7.37021042383268    4.97103143355156    5.38640697921573
C         7.97348174622006    3.10602142084286    6.19819383905433
C         8.32423977837731    2.42946571721731    5.06615536796371
C         8.57232622444273    1.04857237146726    5.30497167058593
H         8.86138469420432    0.36262153911644    4.52847070740910
C         8.43169436500363    0.68830953552843    6.60382138293262
C         8.65647742784311   -0.64266891857768    7.22773730236441
H         7.85577920604595   -0.88397010549926    7.92402931490543
H         8.70089511933897   -1.41152175227051    6.45998849642294
H         9.59516339620638   -0.65303216888319    7.78387498583159
C        10.42617645132618    6.94052725907940    2.67842305713661
H        10.23415532305912    7.94903030909815    3.04378903492393
H        11.23921319121274    6.99397225636669    1.95335448914484
H         9.54605000727700    6.54758207050028    2.17549669444150
C        10.78748958010604    6.03248621003097    3.79665713315858
C        10.29975700701108    4.78759925654273    4.08670038688201
C        10.91615759852479    4.22049506858068    5.24319861440272
H        10.68370974959610    3.23702245123272    5.61012641756347
C        11.83817522666826    5.02192112498510    5.82340964904248
C        12.66512496420176    4.76345683907661    7.03242582054569
H        12.46928501492545    5.51209391013332    7.80018413760490
H        12.43274501817040    3.77978083404631    7.43425110754770
H        13.72713654394093    4.80456499876264    6.79091485116348
C         8.43244781016775    3.06047529539906    3.75906586124872
C         9.26924440073818    4.11244901646783    3.32892059314128
C         7.99185924762219    3.56289191288667    1.71356484436136
C         7.30228706258307    3.51852964022089    0.46894157562049
C         7.68576606236467    4.30658916033106   -0.62730479379634
H         8.53638887654534    4.95769910929000   -0.50898372850242
C         6.97299412460351    4.21561850323129   -1.79728833469287
H         7.24625189149322    4.80725732511103   -2.65843930836543
C         5.88518200829284    3.34241161898705   -1.85906791508296
H         5.30207478365408    3.23992448144102   -2.75981155682187
C         5.56197420887148    2.60808413421775   -0.73680346123928
H         4.71888746265763    1.92951700155717   -0.74163000747266

