31
CSD_code = DUZBUV | q = 0 | S = 0 | Stoichiometry = C6H18N2P2PtS2 | MND = 4
Pt        1.93104824084930   -0.08018983891834    1.38318069783722
S         4.17914604549764    0.17714777262488    1.00260503603132
S         2.87750734373690    1.95270976655011   -0.67908247400863
P        -0.38373168937808    0.09028785131885    1.34149012201172
P         2.31991466042594   -1.73825042192860    2.91499390982491
N         1.65449523370641    1.31275068455566    0.01975945357190
N         4.23286261610459    1.34861360032056   -0.16328665500249
C        -1.05198165208331   -0.31448867982973   -0.31071206770080
C        -1.56250924248902   -0.82703772832853    2.42521782229106
C        -0.98570676380466    1.79899913376823    1.57735068191235
C         1.74140250145881   -3.41809921980753    2.44605121839479
C         4.06654094519812   -2.09083821382989    3.32405829782502
C         1.61152708700627   -1.57803085983606    4.60374127123954
H        -0.50699512450742    0.28102602772704   -1.03977132890291
H        -2.11702776842709   -0.08979923244964   -0.36013935287177
H        -0.88775839122499   -1.36977440518805   -0.52245599717428
H        -1.41351617745826   -0.52783197285578    3.46043537300003
H        -1.39518105400365   -1.89830001014501    2.33904123561688
H        -2.58645956489004   -0.60034868463588    2.13289304351256
H        -0.76440198909159    2.12533887127136    2.59201950538061
H        -2.05919032075150    1.85360818519410    1.39825312618644
H        -0.45133162640080    2.43659654070942    0.87704730093517
H         0.66430490853439   -3.40812448258423    2.29113375561838
H         1.99293263122869   -4.14063681927369    3.22139297207071
H         2.22320910990435   -3.70305711246122    1.51230271343967
H         4.52063653767878   -1.19625769178360    3.74600566793063
H         4.60158098571139   -2.34237881149220    2.41046540008477
H         4.13602474885097   -2.91386420984298    4.03504405043318
H         0.52584190283019   -1.54836588468166    4.54756248052838
H         1.96424679330489   -0.64776014211077    5.04539430549779
H         1.92146907254091   -2.41634401206313    5.22630843451556

