25
CSD_code = DUZCUY | q = 0 | S = 0 | Stoichiometry = C12H8AuN3S | MND = 4
Au       -0.47212507054415    2.75854151250175    5.27638692787847
C        -1.82214463105466    1.53452561149935    5.95612813387317
C        -0.10493996224628    3.32855157672533    7.04182014427994
C        -1.62406773516517    1.35098051076866    2.79336644225093
H        -2.24510279036349    0.84063315790143    3.51590177518410
C        -1.72705237206339    1.09167894734935    1.44304760090266
H        -2.43930468001328    0.36606163283439    1.08753387939704
C        -0.89726921706578    1.78312981337206    0.56223176031288
H        -0.95595332838635    1.60000642344958   -0.49989855247108
C        -0.00300651203402    2.70159365629268    1.06296764972688
H         0.65968745070277    3.26112684395102    0.42154778641563
C         0.05188868992985    2.91977578422088    2.44415652869734
C         0.92076238160832    3.83504936454759    3.09876746679728
C         0.89542358443152    3.97819674392432    4.47150299693666
C         1.83435987933343    4.93301718679661    4.89792623944877
H         1.98002895609702    5.19804279137235    5.93092889978386
C         2.55408203918235    5.50145039096387    3.88146298500944
C         3.60848760439364    6.54107787945009    3.98244276259239
H         3.27199225905598    7.47235923611124    3.52536255320607
H         4.51291135976920    6.22520067108144    3.46355739183743
H         3.84475633929007    6.72988764801173    5.02676061730872
N        -2.63171491185631    0.78553843646324    6.26990141029435
N         0.13413031284934    3.68822343653217    8.09908277232549
N        -0.76200571825302    2.23742739802267    3.28399999604398
S         2.09437607240218    4.87162334585682    2.33541383196861

