113
CSD_code = DUZJAL | q = 0 | S = 0 | Stoichiometry = C58H49ClP4Ru | MND = 6
Ru        0.76470221323853    2.39478390233125    8.97980309601576
Cl        2.91581423924073    2.92345616259789    7.99156344771775
C        -0.88147252632325    2.10211849173562   10.08565599758315
C        -1.75933976537317    1.98642857273715   10.91526202901204
C        -2.81142858027595    1.87587210413100   11.85280885245227
C        -3.61038146341709    2.98304172953448   12.15031531768259
H        -3.42167065854169    3.91900947118283   11.64192202851086
C        -4.62484474938165    2.87954463864155   13.08065087122734
H        -5.23821424536525    3.74179177729211   13.30592833881033
C        -4.86183088115675    1.67661278980628   13.72768311751697
H        -5.65645842442654    1.59941954005105   14.45606821808204
C        -4.07641341552654    0.57276886361034   13.43471052015076
H        -4.26051276300397   -0.36783654607337   13.93595141769988
C        -3.05980312988113    0.66617421483291   12.50530554490623
H        -2.44418610014223   -0.19295886435844   12.27555510451540
P         0.66525909527007    4.67498330259269    8.91019117335220
C         1.18353415134003    5.62661058643081    7.45138744088812
C         0.54575967895565    5.26909053936495    6.26835168002203
H        -0.18253636555531    4.46337318641204    6.29730804156507
C         0.85190984170966    5.91559674102653    5.08779392004624
H         0.36467797930457    5.62664171306445    4.16741271540821
C         1.79607181213629    6.93069567677635    5.08822905142257
H         2.04642464946100    7.43534639803925    4.16646237507312
C         2.42433299427411    7.29619604671773    6.26704878299236
H         3.16109480824038    8.08680951837714    6.26213779510854
C         2.12097511920529    6.64957351039536    7.45253938135988
H         2.62182059776927    6.93675183275999    8.36659158168932
C        -0.76948868286140    5.68747703539906    9.39567936133309
C        -2.03163780041290    5.12963910385059    9.23265553758498
H        -2.11397697157974    4.10605426740514    8.88937617997960
C        -3.15896048426295    5.87117148792379    9.53715493803477
H        -4.13921771823898    5.43463716576465    9.41025765539504
C        -3.02645289240679    7.16798640053875   10.00549269747325
H        -3.90492215844396    7.74702786642213   10.25081895851250
C        -1.76745837061801    7.72921404113795   10.15851198184942
H        -1.66916188033421    8.74358655946946   10.51800517623474
C        -0.63804659216033    6.99595368353269    9.84695632795185
H         0.34478379756473    7.43685899371993    9.95062372718785
C         1.94481015242370    4.94528202585260   10.23527595797987
H         1.69457493016810    5.68354165201627   11.00313253143695
H         2.92076236108984    5.15112809127146    9.78119880590652
P         1.90937837447024    3.16648830116325   10.80859938509058
C         3.62657322713797    2.73566177284180   11.19365882191135
C         4.08295601266039    1.47807013505900   10.82196780497070
H         3.40801552921412    0.80341172010323   10.30457365552618
C         5.38722655617566    1.10799296953852   11.09037174133772
H         5.74341303423569    0.13291146347446   10.79102169499234
C         6.23452232696005    1.99570037197720   11.73340301305805
H         7.25679722503961    1.71287235072011   11.93860192456102
C         5.77859856309481    3.24970068481341   12.11131177491879
H         6.44507590899053    3.93768434119021   12.61175172345608
C         4.47515830335277    3.62449011846349   11.84466689022453
H         4.10948733450960    4.59975324756106   12.13929823281131
C         1.14350669138994    3.31320244762595   12.44827760967004
C        -0.06058938936742    4.00508101907156   12.54363231264917
H        -0.46105922000285    4.49898351327462   11.66657717265338
C        -0.74539773390324    4.04357055468657   13.74234046890231
H        -1.68065426533666    4.57897078651892   13.81184568282706
C        -0.24109878398024    3.37982987671576   14.84933035261052
H        -0.78260059952418    3.40091118276550   15.78366064384336
C         0.95229459783037    2.68320917901134   14.75673355170670
H         1.34488791114647    2.16467247879032   15.61995434405999
C         1.64307781667895    2.64188786022829   13.55889504837543
H         2.57143384874836    2.09026042530251   13.48378080924448
P         0.92667111721880    0.12739946419769    9.03963218736662
C         2.33212306853125   -0.81274472019650    8.37355369306061
C         3.05568845208411   -1.72462682008176    9.13528068381350
H         2.73869625794695   -1.95910210719239   10.14310959930920
C         4.17831796690445   -2.32842089125630    8.59790397173104
H         4.73693800019940   -3.04132582381466    9.18777332608943
C         4.59147174438086   -2.01669010331109    7.31291488020363
H         5.47218629704460   -2.48774436883813    6.90115761063996
C         3.88400066838311   -1.09229150991511    6.56025098493534
H         4.21314180281010   -0.83631887554434    5.56375609763837
C         2.76228394265492   -0.48637320197834    7.09044208201622
H         2.21968323128459    0.25845446401789    6.52089428182558
C         0.41526305950493   -0.86870393731318   10.46623980300464
C        -0.12718960118832   -2.14119688371403   10.32274906330042
H        -0.24454699993788   -2.56843768956751    9.33540797577543
C        -0.50801668191386   -2.85202093399149   11.44599651503559
H        -0.93526559933830   -3.83896882522954   11.33974627555255
C        -0.34622831187041   -2.30042932913803   12.70825521844324
H        -0.65251284418369   -2.85887706414000   13.58089853790641
C         0.19990320837912   -1.03490092053844   12.85254041691116
H         0.31859794193124   -0.60014222805395   13.83426420237436
C         0.57932153251738   -0.32051039856548   11.73148475280298
H         0.98973465607208    0.67920224459417   11.81984661958071
C        -0.39555896091122   -0.14805639403609    7.74846736135922
H        -1.33407557595284   -0.41896141214029    8.24305472302531
H        -0.14635191484087   -0.87398811647764    6.96756172567362
P        -0.43118497445049    1.63418557102942    7.17935400413909
C         0.12348569820008    1.47227551133566    5.44830154473825
C        -0.56855391569361    0.63509587511622    4.57622816610688
H        -1.44622187442317    0.10645710949300    4.92689175629062
C        -0.13867339246037    0.49550738029910    3.27128477266965
H        -0.67460765551726   -0.15349458609326    2.59335463459677
C         0.97939814641860    1.18886145376818    2.82998438151572
H         1.31127273553111    1.07636967514318    1.80791089561538
C         1.66853957390873    2.02087158029343    3.69536937011679
H         2.54073023854599    2.55889351098174    3.35398543223532
C         1.24375648835537    2.16457728619864    5.00553031742414
H         1.78772694507791    2.79950147101800    5.69237537601040
C        -2.18845989954393    2.04544519525176    6.92487206429768
C        -3.14173256601635    1.68343125143541    7.87316417087998
H        -2.85274522072068    1.08964478838343    8.72831251846905
C        -4.44913285308520    2.11468169240868    7.74572888817325
H        -5.17940901539401    1.82895553876635    8.48891870780267
C        -4.81788281901417    2.91729756674043    6.67856547382946
H        -5.83903000124859    3.25621337979904    6.58228821633976
C        -3.87245575345812    3.28994480451878    5.73735211008362
H        -4.15452404242180    3.92010699860016    4.90620997207887
C        -2.56365987052302    2.86209642299094    5.86060463099664
H        -1.82940750096881    3.15558582936890    5.12179766888447

