56
CSD_code = DUZLAN | q = 0 | S = 0 | Stoichiometry = C19H33O3Re | MND = 8
Re        3.94626750025973    3.41828915322183    5.17406561931299
O         3.75361933470546    1.54858236841815    5.72143672329635
O         2.07260689551704    3.33801111500637    5.57246706372377
O         5.11547176090672    4.11684496010659    6.13408452265788
C         4.39319566602390    3.13154147837790    2.95948317042900
C         5.72577184112676    3.78495558900916    2.97454023359327
C         5.51817772022833    5.15806907340806    3.04978599587685
H         6.28829789345155    5.90194803018926    3.09691947046411
C         4.15146072449607    5.45521809187650    3.16273181088083
C         3.44350124395182    4.22773650568450    3.09604111276897
H         2.39983089866218    4.17593195969325    2.82961096001977
C         3.93836333755093    1.87926982148623    2.19561272049671
C         4.19153337924500    2.13021115888103    0.70050332688446
H         5.24579379083353    2.27867000372102    0.49553995393027
H         3.65692111157476    3.01942209845687    0.37232179699606
H         3.84016870837464    1.28106738162045    0.11764894187119
C         4.61359768938277    0.58118913360659    2.64853058521092
H         5.67485460278053    0.56932096421052    2.43234616625662
H         4.16513858240663   -0.26348676834576    2.12738546842110
H         4.46422000441285    0.44475235992792    3.71783062280688
C         2.42567387206455    1.65235466933922    2.37841522034757
H         2.15135730466637    0.68970068222854    1.95073109232401
H         1.83274018207163    2.41040856303969    1.87210851458018
H         2.15808650100696    1.63629237229152    3.43377585435401
C         7.11840230843833    3.19408237709941    3.09014520413419
C         8.14541658053110    4.29454590518845    3.40346282118655
H         9.11981368450553    3.83707346363215    3.56100764480776
H         7.87134110014693    4.82431452004818    4.31134125750482
H         8.23835208840163    5.00096949227665    2.58203829909290
C         7.58186525174508    2.52551813643044    1.78616480264196
H         8.62843631438877    2.24294440928369    1.87904781111326
H         7.49059677198773    3.22205473861633    0.95476939361434
H         7.01736289367447    1.62978900685419    1.55509620893408
C         7.17600734787042    2.20750354393563    4.26517575340232
H         6.45672864415033    1.40637676201165    4.16839365534992
H         6.95220125000438    2.73895751157958    5.18941052244238
H         8.17288612052058    1.77765317725375    4.33845539129577
C         3.57399610103667    6.81750387415873    3.41522210455895
C         2.05754544848618    6.74669552137232    3.60500470451039
H         1.56507261319422    6.40780221347262    2.69575928957188
H         1.66758427550326    7.73170991112188    3.85199324507800
H         1.81148017177175    6.06486711211862    4.41645273770671
C         4.21089919573077    7.36962923642940    4.69962551428310
H         4.08831161573395    6.64941583984095    5.50887871623928
H         3.73927191318827    8.30810554087027    4.98244304714712
H         5.27405486333360    7.54487632116640    4.56189413271904
C         3.90563771102870    7.73757549994458    2.23152663584620
H         4.98008155839945    7.80567568688550    2.08459364547360
H         3.51719306585438    8.73618699251240    2.41722926955010
H         3.45769778736303    7.35602640659021    1.31643729155831
C         2.76378134315349    1.34834499313456    6.67890759993346
H         3.17194027457318    1.57925286628995    7.67452659461877
H         2.46614270807572    0.29217744842924    6.65120323647660
C         1.58709331652743    2.29617408294911    6.35091475450858
H         0.80719680102822    1.77416059217720    5.77488891619617
H         1.12995833395252    2.70033605087209    7.26467285100119

