27
CSD_code = DUZPAP | q = 0 | S = 0 | Stoichiometry = C13H9BFeO3 | MND = 8
Fe        2.29403386314684    0.42444873458246    4.53259741181215
C         0.99566992613216    1.44289062855246    3.92113164443813
C         2.61169951761322   -0.54627037351726    3.06390632990023
C         1.09533804038667   -0.60636331754601    5.30665459608766
C         4.18498174575186   -0.20026582560099    5.60187432822187
C         3.53207874456649    0.82724055721064    6.32515436962322
C         3.46722398266387    2.01027232289616    5.53897159424661
C         4.07467361991207    1.78828944061500    4.27900379185451
B         4.75684216660511    0.39112929340943    4.28277598749347
C         5.72623546639367   -0.24559694941815    3.24289070225481
C         6.01905873108401    0.39327469950944    2.03404202974294
C         6.86132017953594   -0.17740058102858    1.09886862740466
C         7.44217334939469   -1.40974347197301    1.34868564418077
C         7.17242363347893   -2.06315081831637    2.53964443078971
C         6.32674633317984   -1.48772106934167    3.46912633023290
O         0.12925281854543    2.06185307075704    3.49992982204513
O         2.68985346484321   -1.17817321874345    2.11488097610741
O         0.29053507754269   -1.28191115818935    5.76201800147576
H         4.37306859568473   -1.15368336533601    6.08059263698220
H         3.22126234311936    0.76850474896835    7.36012122230445
H         3.10323226309472    2.96193077940536    5.90339181106036
H         4.16959538094391    2.61066333286795    3.58020799138625
H         5.56873835666070    1.35312102708426    1.82426572071805
H         7.06633178511142    0.33702076838401    0.17055865624980
H         8.10006813491002   -1.85887373530884    0.61866484435470
H         7.62197278637149   -3.02545532918754    2.74043885018631
H         6.12288969332698   -2.00963019073527    4.39320164884593

