62
CSD_code = DUZXAZ | q = 0 | S = 0 | Stoichiometry = C31H25IrN2O3 | MND = 6
Ir        2.82989689786772    7.41981875404603    1.58230095784458
N         2.70654381484258    9.10345759736463    0.51925254552635
C         3.58763032573842    9.46446998312570   -0.40963945595519
H         4.48184548253134    8.86104814860332   -0.48248107902826
C         3.39947408450968   10.54866170425394   -1.24460750523149
H         4.14246159564349   10.79744327074075   -1.98520802871998
C         2.23858041647319   11.29839985072183   -1.10756833750248
H         2.05361472765751   12.14880155816842   -1.74657772932136
C         1.32651992031672   10.93740528636730   -0.13570113537029
H         0.41847592648936   11.50359412767362   -0.00650779021094
C         1.57562228544729    9.83210546726312    0.67753004179771
C         0.70919929344130    9.35313711186922    1.74325492467493
C        -0.48430646621279    9.96847663301913    2.12013910833737
H        -0.83181086329163   10.85411458015947    1.60841704096437
C        -1.23240429824093    9.44549608782207    3.15436379456413
H        -2.15735689843112    9.92011936957335    3.44795906087819
C        -0.79196204529957    8.30905290427597    3.81640961491780
H        -1.37764819965707    7.90178699764861    4.62866241087145
C         0.39133081238589    7.69379311581479    3.44352077923103
H         0.71102970816658    6.81094366416575    3.98035002923715
C         1.16850793877444    8.19281298602347    2.40383437681831
N         2.94312092060716    5.74519942172018    2.65525708342205
C         2.38091640123377    4.59416993449145    2.29653830501337
H         1.73745534708222    4.62638752255069    1.42802564394963
C         2.58578318079617    3.41172193406404    2.98055907544133
H         2.10833041757683    2.50373413178706    2.64865722517097
C         3.41569261399903    3.42380301005535    4.09418080189472
H         3.60364364466779    2.51789900280860    4.65071077464069
C         3.99341971118486    4.61772323405564    4.47818646941821
H         4.64000666719717    4.65545733098253    5.33975647918727
C         3.74511737541125    5.77889611374266    3.74665827999546
C         4.27518343110628    7.09935895438157    4.04776323140900
C         5.09182210969201    7.38731810746900    5.14106224750347
H         5.38225691342245    6.60818848555189    5.83069388466637
C         5.53646284107713    8.67660518399453    5.34802453169016
H         6.16908753208948    8.90234848571819    6.19408233400932
C         5.16756602127587    9.68188629410191    4.46643358454790
H         5.51502826292017   10.69226222603524    4.63089080916488
C         4.35812890267124    9.39958820805974    3.37881290535806
H         4.08394670391525   10.20460630722004    2.71060314350969
C         3.89337747525631    8.11096471024183    3.13938868310021
O         1.76317531122894    6.50816555785719   -0.12927725618417
O         4.58925847060376    6.62838947172764    0.49713107788819
C         2.21959333462011    5.95119669104822   -1.15179717401005
C         3.57195669072223    5.66038832965684   -1.42587729552254
C         4.65122353059350    6.01459766242693   -0.59102518212869
C         3.87851437493584    4.96499559291981   -2.68803364842025
O         3.98965845536922    5.68760831545931   -3.82957224930281
C         4.26588448793980    4.82695368448291   -4.82494870164151
H         4.38653566595798    5.23668932146436   -5.80838324044846
C         4.33802380341379    3.55522222095593   -4.35325435104749
H         4.54306168611156    2.66790738741804   -4.91703408454004
C         4.08570110789478    3.64366610655423   -2.96235098945432
H         4.05928824762570    2.83495788116228   -2.25967803979196
C         1.20350441212789    5.52882358041960   -2.19780674605899
H         0.20400597802463    5.77063915675861   -1.84325177325973
H         1.27649740795023    4.46013765863362   -2.38929380536406
H         1.39011763615952    6.05584004229678   -3.13119736701641
C         6.04183809236801    5.63151547842241   -1.06628965084226
H         6.77628137505535    6.00527518467377   -0.35633565979990
H         6.23735446763733    6.05555951103982   -2.04894972376405
H         6.12833453134190    4.54981336688482   -1.13956325670709

