131
CSD_code = DUZXIH | q = 0 | S = 0 | Stoichiometry = C68H60MoN2 | MND = 4
Mo       12.21996741129028   13.31006456824740    5.07961267016199
N        12.62706397579188   14.99937161513270    5.33245476759775
C        11.74575039997195   12.41810502747519    6.98379622828688
H        11.06837406607392   11.55907384565581    6.81115161170884
H        11.19578599699392   13.13116571029404    7.61990767726124
H        12.56452288186405   12.03949738347990    7.60327487481246
N        13.43989721481042   12.32220304891042    4.29371119632344
C        10.38785662869989   13.19202241445916    3.94864275076660
H        10.21892595095114   13.91124589694567    3.14123585742932
H         9.53973656150250   13.31437557258047    4.65120787665404
H        10.27402084017552   12.19696084352880    3.48885033319731
C        14.59599062315785   12.03684272572043    3.67499266181310
C        15.02289096785332   12.82827356968414    2.57815900339515
C        16.19135833024844   12.50464937109918    1.91694866656969
H        16.50486687784871   13.10672556707222    1.07584990893278
C        16.98026997836898   11.43040126387659    2.31431771885996
C        16.58597436278734   10.68881390444058    3.41933601999977
H        17.20541468154565    9.86967559443941    3.75522165025184
C        15.42827162535549   10.98599545407237    4.11381900326362
C        18.22998978636346   11.07828979326080    1.56575291704438
H        18.02944097293292   10.27432049417131    0.85629195731921
H        19.00505486613126   10.73513264643262    2.24816409907142
H        18.60182781990808   11.93520749573663    1.00876678567095
C        14.17230210235346   14.02061276979281    2.19843950764792
H        13.83468428850888   14.47944900196905    3.14770884223891
C        12.91403092754733   13.62835241050131    1.44784658689507
C        11.99919730596004   14.62665832267299    1.12200180450129
H        12.20212514956200   15.64932435675726    1.40777357782717
C        10.84670428338547   14.32675985836298    0.42008065004193
H        10.15190522328818   15.11623294960328    0.17066168181563
C        11.48819152286958   12.02208224331322    0.36043761241036
H        11.29402183102651   11.00144457160059    0.06287879468214
C        12.64911030858607   12.32297157723171    1.05483481826076
H        13.35465032882330   11.53634224777242    1.28208297846080
C        14.95533969596451   15.07355638400761    1.45234754022065
C        15.62766343732702   16.05981465582282    2.16470294954339
H        15.58015240941614   16.06732634763929    3.24522180365773
C        16.34831001154668   17.03855122091207    1.50373752636347
H        16.85878195593661   17.80191226917014    2.07267650971647
C        16.40541550919556   17.04373368144604    0.12035028274352
H        16.96246650812553   17.81085229875043   -0.39760848311094
C        15.74396626300318   16.06092174833519   -0.59652228735444
H        15.78649864655712   16.05805896874594   -1.67622924401519
C        15.02474165942619   15.08085977521576    0.06462126207323
H        14.50705269744696   14.31773004150951   -0.49877575789768
C        14.99515729710698   10.18412287538137    5.32326238307320
H        14.21739266203140   10.77758937885500    5.83508605682539
C        14.34438569913182    8.92843746772513    4.79314551653003
C        12.97764259401385    8.91999097065153    4.54066234784615
H        12.38897600790595    9.80339521395420    4.76962043122416
C        12.36786929441788    7.80648887619390    3.99172726735758
H        11.30397876975694    7.81330264731436    3.80162424439843
C        13.11800767816249    6.68324658195045    3.68766439026655
H        12.64268716447392    5.81116683927988    3.26308981420359
C        14.48149845354144    6.68552633425261    3.92803149276471
H        15.07335519202427    5.81372028777109    3.68910321980401
C        15.09146883158419    7.80172039748088    4.47123661469955
H        16.15561075555427    7.79483000514243    4.65641059088286
C        16.09230894858721    9.95496597817283    6.33445444165085
C        16.00567365647008    8.90193778041623    7.23829669737779
H        15.17617305846784    8.21179785502859    7.17599550531887
C        16.96837802191623    8.72991955383116    8.21679837623793
H        16.88843670684546    7.90188309139013    8.90654411980383
C        18.02638567987697    9.61737990408477    8.31887935034554
H        18.77626800969322    9.48341799827147    9.08459747594275
C        18.11006044653995   10.68144886761505    7.43800385125084
H        18.91959649945423   11.39289810029890    7.51497925857459
C        17.15005471082105   10.84959803639290    6.45557108776473
H        17.22567476049677   11.68911373718337    5.78007383404790
C        13.38643616851805   16.10596551659632    5.32778721674436
C        12.92683580755406   17.31395245427625    4.76246848514847
C        13.71695377853980   18.44672698587040    4.82173893735742
H        13.34623394659359   19.36983393899513    4.39987506547837
C        14.98262675489905   18.42000241633266    5.39054394202170
C        15.46092038230279   17.21520455295750    5.89465684271319
H        16.45665615196621   17.17698319474651    6.31332588990246
C        14.69938318696652   16.06356327335709    5.86288735915710
C        15.81474762829236   19.66450559451868    5.46036754707336
H        16.87266008917041   19.41966677132553    5.52211684006793
H        15.54990734679552   20.24465096057052    6.34542093256403
H        15.64583443049318   20.29147261062707    4.58724794431196
C        15.21619137119639   14.73125098491329    6.36035972154533
H        14.83966537618774   13.96536255664080    5.65460427864937
C        16.72359034927099   14.65587921457549    6.33237223279258
C        17.36558566754256   14.24531047445358    5.16987061591737
H        16.78040041608077   13.97755684310008    4.30075316716258
C        18.74566368487285   14.16493980981955    5.11773568217471
H        19.22737477475796   13.83653021671921    4.20830169448486
C        19.50259377605936   14.49436954046293    6.22933113045447
H        20.58011606853855   14.42620259004570    6.19266192254346
C        18.87128321283033   14.91106599488855    7.38909229024959
H        19.45637458285011   15.17196672197339    8.25927111863406
C        17.49079965666355   14.99339882055033    7.44050757407485
H        17.00242894586427   15.31594443448084    8.34893841276004
C        14.66313261245780   14.35686202803125    7.72171334839787
C        15.00277068599222   13.11603458765337    8.25538532668956
H        15.64672679706915   12.45310436951323    7.69444797344914
C        14.53963481223399   12.73181368485609    9.49984313368746
H        14.81936575412387   11.76755426906274    9.90000353535142
C        13.71966592149215   13.57949197778481   10.22787149799298
H        13.35477858257242   13.28039918812735   11.19971581463236
C        13.37456387474115   14.81222150842293    9.70330157581365
H        12.73844893583478   15.48018599788846   10.26639465398310
C        13.84685928340360   15.20307372620202    8.46043779376891
H        13.58336293353678   16.17608263481917    8.07061377914843
C        11.54717131807645   17.33450195230268    4.13821103250342
H        11.26950917159536   16.28291136351257    3.94819714546640
C        11.48824170613724   18.04075953803558    2.80527842777769
C        10.29122538332040   18.57282285472103    2.33984192418205
H         9.40952300550052   18.53080652970623    2.96351215545789
C        10.21659214430667   19.15326506414149    1.08606658464352
H         9.27931021265225   19.56771875619980    0.74331658221458
C        11.33377128026641   19.19759614729308    0.26939218214192
H        11.27368741163098   19.64925243069038   -0.70990133077240
C        12.52484667905407   18.65105254438150    0.71454690815780
H        13.40159481336294   18.66215066329529    0.08318300950672
C        12.60048357508877   18.07608772016024    1.97076944460574
H        13.53592459248444   17.64878438265522    2.30152621584800
C        10.60938109275820   17.87681479839479    5.19069154065417
C        10.44581147653976   19.24365652228842    5.38232140413907
H        10.95303060864906   19.93933737016998    4.73010168429848
C         9.63019495131239   19.71932284553725    6.39288381729596
H         9.50681180179695   20.78440608696100    6.52624349818033
C         8.97491748835915   18.83624768135670    7.23428816436503
H         8.33833165483703   19.20859890205499    8.02346128747414
C         9.14307890651643   17.47319758863332    7.06017045918304
H         8.63884112151142   16.77838090950861    7.71672121228636
C         9.95423607706468   16.99827745525818    6.04534166520357
H        10.09194692802934   15.92860705330613    5.91723112356509
C        10.58525044430382   13.01994637436831    0.03967412510322
H         9.68400662124360   12.78290573343420   -0.50682910169110

