63
CSD_code = DUZZAA | q = 0 | S = 0 | Stoichiometry = C24H28N2O8Zn | MND = 6
Zn        9.95528823450148    4.81829214938486    5.43122739263419
O         8.08875648958009    5.07580221832337    5.90912470922016
O         9.38502846999381    3.18431515449583    4.54683070461326
O         2.80303559855591    4.38670798551928   -0.90586348591802
O         9.74972661979976    6.01310900103779    3.56208057922080
H        10.59954886874582    5.78081040908466    3.17164706474679
H         9.85492603852396    6.88664270761281    3.95491566590607
N         2.55352299523406    3.00119400403998    0.90668143370113
H         1.92127937381235    2.31997025860941    1.30375580928627
C         5.85518277333412    5.61266592397551    5.31475908706829
H         5.99042095761430    6.32671686938193    6.12237121501389
H         5.02230270240369    4.95149906108299    5.54306361385451
H         5.61899425772900    6.14236137650666    4.39495885170778
C         7.12695638992217    4.81351673983935    5.13610095551338
C         7.15006022384859    3.82322863285068    4.14426315946469
C         8.31285071533723    3.08251889851965    3.89011429930148
C         8.28064797868609    2.06962846301789    2.76720806933242
H         8.11362308094464    2.57617179072655    1.81952636102800
H         7.46764193496817    1.36290433780602    2.91636419606399
H         9.22934939094251    1.54119030101347    2.73303207927748
C         5.95229106075806    3.61492493783873    3.29330982845416
C         4.95770895520396    2.71632563228126    3.66346879523971
H         5.05825040643615    2.16069143697216    4.58487651027220
C         3.84591368394403    2.52682953376022    2.86670489042635
H         3.07956018359419    1.82434737469228    3.16660633398632
C         3.70381728986353    3.23538698848383    1.67614086029181
C         4.69280326829067    4.13720586615721    1.29667620425704
H         4.58798580902508    4.68802536822181    0.37722392464774
C         5.80038706598058    4.31779384656451    2.10307601895986
H         6.56707079497719    5.01913802408742    1.80789614895749
C         2.19652474380244    3.56258814367534   -0.27251429401857
H         1.22333953582004    3.15702495354404   -0.61537328244897
O        11.82229625131713    4.56111487198599    4.95313754439310
O        10.52562384979692    6.45256719520224    6.31549576287168
O        17.10537082899906    5.25236325135195   11.77007166953902
O        10.16267895457311    3.62317231568865    7.29988100064989
H         9.31298870214059    3.85416952792149    7.69131536803226
H        10.05823691488610    2.74939494730387    6.90732975871879
N        17.35673038701973    6.63581292697544    9.95619563187496
H        17.98954156057495    7.31632211135647    9.55880446501438
C        14.05562550491478    4.02409724715862    5.54817615582921
H        13.92044926264641    3.30993659163272    4.74064804694424
H        14.88872657945772    4.68502813158312    5.31999839840872
H        14.29139762943549    3.49450286978340    6.46813702735202
C        12.78388951790712    4.82340983447425    5.72638721513406
C        12.76070537523677    5.81399239892910    6.71793210955480
C        11.59785648618773    6.55459620014800    6.97208792025268
C        11.63006041132749    7.56737142860332    8.09511138899219
H        11.79747797238156    7.06082696204435    9.04272725833648
H        12.44290334169983    8.27424900633180    7.94576124138203
H        10.68129461521400    8.09565964608212    8.12960293085538
C        13.95837769346357    6.02230818134517    7.56898641267002
C        14.95336386136106    6.92036998614125    7.19865275420456
H        14.85317735089547    7.47575240753602    6.27704878492254
C        16.06500258780363    7.10986131718938    7.99564751854889
H        16.83166555424248    7.81195791816952    7.69563503599300
C        16.20651322981725    6.40180556200500    9.18657141674811
C        15.21713631613278    5.50046791097026    9.56617453600150
H        15.32156641809314    4.94995394246743   10.48585347656687
C        14.10971140681673    5.31991768938025    8.75957051140247
H        13.34272834239501    4.61891125406278    9.05478392065593
C        17.71283453944834    6.07528500356887   11.13607610448537
H        18.68597266164317    6.48079297349770   11.47914493360342

