98
CSD_code = EACWAG | q = 0 | S = 0 | Stoichiometry = C55H37N5Zn | MND = 5
Zn       15.07236473844450    1.93218749845199    1.00549087904760
N        13.10277660935144    2.09231246128721    1.54260007582545
N        14.64334412860974    2.75100316300550   -0.81304953768944
N        17.06529938466872    2.10690296494619    0.58199297700035
N        15.54039528666791    1.53534191322306    2.94556579859023
N        14.94095839838718   -0.13851643088626    0.34226545580890
C        12.54901954309838    1.77657246028489    2.74338925024059
C        11.10445184137885    1.88552615541296    2.65955568062781
C        10.83474286852778    2.30824544246457    1.39527984203602
C        12.08563226079751    2.41561333957060    0.70514124392977
C        12.20026626559977    2.80884093254627   -0.62946190281544
C        13.40176334026426    2.95272532925576   -1.32284820105854
C        13.49343373923647    3.29977477181738   -2.71571777072888
C        14.81039586762215    3.31665515953975   -3.02476909046831
C        15.52232674101726    2.97772440142318   -1.82182510052698
C        16.91067089836121    2.87228139255180   -1.74070377832336
C        17.61320804490034    2.48115950933497   -0.60114432837831
C        19.04841709018180    2.44840212168984   -0.50968307258573
C        19.34838280592695    2.03679707516958    0.74362257816840
C        18.09584092966875    1.82356138398471    1.41779590522271
C        17.98413707284762    1.43367796140463    2.75261332582311
C        16.78267385876681    1.32651332053123    3.45406502365462
C        16.68893805002290    0.96654764138694    4.84249729158509
C        15.37437196274016    0.98893200309286    5.16064573022954
C        14.66135176845197    1.33426482513087    3.95916586746506
C        13.26969573418144    1.44223698359278    3.89003887800823
C        10.07730011838627    1.57913982943280    3.65729093677256
C         9.21659610751190    2.57973165920672    4.09743051485884
C         8.21801897169332    2.29420759871584    5.00956349149309
C         8.05504896930677    1.00261978012237    5.47976870489458
C         8.88661864696659   -0.00524291385106    5.02149562007085
C         9.88753689206248    0.27800505943626    4.11250029608990
C        10.94926441995262    3.08355713183292   -1.37091685147262
C        10.67062447622451    4.36409433115185   -1.83840785872148
C         9.50286454657864    4.61797410857677   -2.53456459025591
C         8.60097948437557    3.59554150112814   -2.77793797725116
C         8.87121919453421    2.31746107586971   -2.31835797193696
C        10.03607571285979    2.06280171345577   -1.61766765112040
C        17.69585630517621    3.20773014847786   -2.94818150531751
C        18.46003302043447    2.23670806594578   -3.58792131634314
C        19.19251006946153    2.55224242855437   -4.71782387828141
C        19.17652294071647    3.84264434118564   -5.21975924442133
C        18.42039801457716    4.81586387961081   -4.58823350229749
C        17.68242616808677    4.50089736659713   -3.46187693514315
C        19.23749070736418    1.12766697250589    3.47743801963176
C        19.66110428983318    1.92080354289333    4.53908915546711
C        20.83529494220920    1.62696716140358    5.20834139800783
C        21.59913846575978    0.53563553314141    4.82945381618769
C        21.18554747998009   -0.25861335109286    3.77315281562735
C        20.01443833677497    0.03672349518147    3.09941750630555
C        12.53989437675458    1.22282574022558    5.16000399912702
C        11.92019830891434    2.28888922730839    5.80194402802342
C        11.25097775200414    2.09412750567955    6.99581595591667
C        11.19559465399119    0.83361125689318    7.56480959608779
C        11.82313371229202   -0.23058458061548    6.94008999401820
C        12.49560316869307   -0.03696353848653    5.74779146175654
C        15.81609753238697   -1.03500517970218    0.77607298944648
C        15.82968503531194   -2.34857454736426    0.33614409191383
C        14.88827680537067   -2.74579457932266   -0.60002463351859
C        13.97218316077896   -1.80958332519672   -1.05197626588118
C        14.03853854495462   -0.51955305639555   -0.55096609319450
H         9.86795411216243    2.51269681109895    0.97727288524199
H        12.65990866181987    3.48808631161068   -3.36439719738840
H        15.26278129527163    3.52028436884265   -3.97596325493590
H        19.72581575847406    2.72467995375367   -1.29432684276331
H        20.31845713699090    1.90955944499572    1.18390618410694
H        17.51833237343256    0.73208438153945    5.48110422955554
H        14.92682626770421    0.79461243248310    6.11569003138441
H         9.34721853031700    3.58737554002594    3.72947348947263
H         7.56354425540452    3.08182812811052    5.35443374024949
H         7.27803541940152    0.78001315702577    6.19622791742798
H         8.75320276646582   -1.01781714582968    5.37426840257986
H        10.52945354003289   -0.51024720470911    3.74627287849052
H        11.37366790883569    5.16089828465883   -1.64341837455945
H         9.29528396450227    5.61733659762116   -2.88887967829991
H         7.69019845274211    3.79398589500532   -3.32352221889534
H         8.17129202872966    1.51596965785940   -2.50630687707321
H        10.24797571732487    1.06461865504999   -1.26051495103050
H        18.46730724850963    1.22903583296469   -3.19716552507932
H        19.77890733960577    1.78888458964488   -5.20873954309619
H        19.75209180983022    4.08914347360490   -6.09984713300705
H        18.40796186371039    5.82535879920734   -4.97386391080602
H        17.09698725950192    5.26003080830071   -2.96330032900589
H        19.06775109948045    2.77593294345878    4.82854866942692
H        21.15637350618096    2.25211077340267    6.02897412364651
H        22.51469413346541    0.30580344806444    5.35438115673127
H        21.77840205667175   -1.11056325868424    3.47260589082843
H        19.69100380932285   -0.58228179436788    2.27412839854473
H        11.96970505989324    3.27287191609670    5.35910014147154
H        10.76975882894488    2.92898392110838    7.48368999016515
H        10.66821583325220    0.68145978147866    8.49492819244294
H        11.78867174792328   -1.21511848430139    7.38407366636741
H        12.98435762513832   -0.86701226539991    5.25689243378451
H        16.53122214236142   -0.68143558860737    1.50449207483324
H        16.56160104203304   -3.04297150126894    0.71817193834275
H        14.86890770381584   -3.76100750070646   -0.96841584281052
H        13.22083735890480   -2.07230431620259   -1.78011452061862
H        13.34444377983759    0.24177399033962   -0.87618137295212

