29
CSD_code = EADJIC | q = 0 | S = 0 | Stoichiometry = C13H9O5PW | MND = 6
W        10.30027752695039   13.47421157937021    5.11844535325874
P         7.86353699474748   12.93589086892024    5.07755525405538
O         9.99763258662102   15.61064365707250    2.83356446622396
O         9.93856342461643   15.61623494348098    7.38908814190306
O        10.81435457022316   11.28766067058761    2.92367170891341
O        10.74068789173723   11.30525894088092    7.34664915921164
O        13.36111294579372   14.08967723729078    5.16704261830806
C         7.13428865584951   11.41744548473752    5.78590424455246
C         7.14298897030988   11.46213148877462    4.27165447966629
C         6.53008018684323   14.17068552825937    5.09707016936177
C         5.17209871806739   13.86473888429523    5.09797625911840
C         4.23414016755490   14.88034916858925    5.11375709076252
C         4.63569811550334   16.20648648934367    5.12818372030807
C         5.98484101075228   16.51801304972824    5.12600019963428
C         6.92627382457388   15.50541048734111    5.11053626537924
C        10.03390480892931   14.84591773073421    6.55227876830623
C        10.07419298910524   14.84074130971118    3.67260048694490
C        10.56422182551000   12.09524404373898    6.54178637708751
C        10.61033587838691   12.08557007107875    3.71407845465369
C        12.24083915874150   13.86719199838965    5.14914874142436
H         6.18208329358034   11.48894560027612    6.29527847712282
H         7.82518795704231   10.73105426423225    6.25940627873787
H         7.83655791727209   10.80275401683708    3.76508327986426
H         6.19611256833121   11.56828096690135    3.75815972755542
H         4.83489485068073   12.83860801637113    5.08656688275096
H         3.18206146685788   14.63527833018500    5.11495719619652
H         3.89727488244574   16.99391411566406    5.14075377773323
H         6.30403942396332   17.54942048029090    5.13643249134546
H         7.98301738901050   15.74484057691735    5.10826992962021

