43
CSD_code = EAIVCO | q = 0 | S = 0 | Stoichiometry = C14H23CoN2O3 | MND = 6
Co       -0.14587739237619    0.03712027023803    2.53929890682902
C         3.08925811712814    1.82272083561230    0.55975352069798
C        -1.81201947025309   -2.70743947785096    2.69741373001067
C        -0.76125422694889   -2.62143740097777    1.79914389075674
C        -0.38038674792956   -3.86450638715920    1.02014391027380
C         0.96012921607176   -0.73470245439412    3.87337378081460
C         2.03613234842720   -0.21543856641997    4.42585295466133
C         1.93255767148867    1.65757924346101    1.52547816420173
C         1.66503523043150    2.69138210712980    2.40964008712043
C         0.62312646430557    2.66422597954637    3.35100624350172
C         0.51627777895941    3.85030712758408    4.27599315990394
C        -1.22114654085827    1.68462912907298    4.48464467461523
C        -2.29968847644122    0.65489915305067    4.15899543092383
C        -3.58539082326494   -1.83425108307761    4.19479926945344
C        -2.29971335680484   -1.61550414748658    3.43627276205560
H         3.01303687868144    2.76574796702807    0.02307825571664
H        -3.05431127422236    1.11202762697665    3.50441521306296
H        -2.79077804690906    0.34328100906154    5.08722772831279
H        -3.96867223959492   -2.83261959056099    4.00672958783471
H        -4.33821454433710   -1.10886057828268    3.88920167450966
H        -3.42187854325189   -1.72593028368163    5.26693680835942
H        -2.31508015450837   -3.65572370598868    2.80045433921016
H        -1.24987602545288   -4.29038018295958    0.52436659129271
H         0.02575212241104   -4.61101362575343    1.69973691898120
H         0.37581972402648   -3.61170170675028    0.28191816123933
H         0.66044564756957   -1.74140668099682    4.16080175988952
H         3.09349045894499    0.99650870065257   -0.14583662290694
H         2.61893539881897   -0.76786769133997    5.15397863767550
H         2.41026255242215    0.76884704892618    4.19268410758103
H        -1.45561974730128   -0.02440882429744    0.29310322556159
H        -0.77493495775896    1.35310529884724    0.31013815709591
H         4.02730176099851    1.81743211211002    1.11086088622065
H         2.30543889943640    3.55884445320581    2.38430073062939
H         1.33841847394834    4.53878361488988    4.10512618810403
H         0.54311511588815    3.52434885679078    5.31484967898089
H        -0.41876526625910    4.38576824291080    4.11183874274230
H        -0.74128945214202    1.42241972180485    5.43817215726915
H        -1.68553284729531    2.67113861516017    4.59114517165698
N        -0.22402302798930    1.66851645359762    3.43763299518788
N        -1.69254647914387   -0.45649842378056    3.46153920594784
O         1.28280550401274    0.57421411367687    1.45040784466271
O        -0.10666354104082   -1.56767323393071    1.54152140635538
O        -1.45947618188671    0.82981636435445    0.73835996300670

