75
CSD_code = EBAFUL | q = 0 | S = 0 | Stoichiometry = C28H36F3HgIN2O3S | MND = 4
Hg        4.01329634440839    5.60494990258910    5.80550728030606
I         6.00346490721873    4.29254886709138    6.73947588926969
N         3.75567835089851    8.73245317977656    5.17625645113447
N         3.61012782278282    7.67912934194104    3.31102558953942
C         3.79905060208193    7.50097341288264    4.63301134943849
C         3.53231603374345    9.66969791525504    4.20831068970269
H         3.46030937444069   10.71431989392685    4.43104982972874
C         3.44265208573553    9.00501254462347    3.02993059495185
H         3.28575826108707    9.36072218210270    2.03267092877988
C         4.01623143945032    9.03587904409023    6.54842186947460
C         2.95615614852945    9.40913310709558    7.37686396510607
C         3.24820326673503    9.76458678756913    8.68796909404377
H         2.45045487498693   10.06367893308545    9.34834689656022
C         4.54514094303517    9.73691595074707    9.15734319550997
H         4.75373129073816   10.01207523354237   10.18012190546384
C         5.58095702233581    9.35942408627106    8.32359584690909
H         6.58745283490047    9.34566275170114    8.70643535435393
C         5.34277617821478    9.00111656791200    7.00411538446552
C         1.52889473640320    9.44848994033646    6.88622666013943
H         1.46490641301290    8.94682286246597    5.91520730709128
C         0.60613507616878    8.69994704752098    7.84945173340076
H        -0.37805285633078    8.58070146833200    7.40328311501392
H         1.01478287857729    7.71511426807116    8.06390528996080
H         0.48691448704522    9.23767052338444    8.78610621530148
C         1.06612706442834   10.89925479182096    6.71729762216759
H         0.04166008006034   10.92220779764559    6.35387258215575
H         1.10581142537686   11.42389104606093    7.66886160068898
H         1.69492242835150   11.43427070919561    6.00831113199723
C         6.49156862434005    8.66757320901719    6.07641682909567
H         6.14923706042018    7.92576163051570    5.34528339452438
C         7.69287136723826    8.05732704758923    6.79642162367346
H         8.38101216202062    7.64291325301414    6.06437512303180
H         8.22932978077937    8.80413535450218    7.37564116587267
H         7.38076417009423    7.24993624837012    7.45235031137591
C         6.92068869591596    9.93474504515140    5.32616909840724
H         7.75451603955665    9.71006561742094    4.66543095526231
H         6.10696882049341   10.33920788687718    4.72753575708263
H         7.23698248369218   10.69748700326646    6.03418840844834
C         3.72716716032932    6.64982245324603    2.32717905183784
C         2.57912484751872    6.01684520745629    1.84523672871656
C         2.73893970806431    5.03591083488541    0.87472210717961
H         1.87201513598631    4.53451250190083    0.47635539383541
C         3.99360426346244    4.69027548776937    0.41264913748756
H         4.09764311495715    3.91702632284260   -0.33337297829791
C         5.11485418173220    5.33815891124641    0.89258273739248
H         6.08801533017341    5.06827802945901    0.51450119947406
C         5.00549785320002    6.33656713756303    1.85141503993117
C         1.19986521187556    6.41688989601828    2.30961688206985
H         1.28510915908187    7.00476185884978    3.22934791356628
C         0.33385604654567    5.19744389155104    2.62373325219742
H         0.84078265763835    4.55229282436226    3.33790946126303
H        -0.61014993757540    5.51878950219125    3.05647426778458
H         0.11102167641587    4.62250009321493    1.72906552868097
C         0.53488740425927    7.28811262785790    1.23792901542201
H         1.12578078089363    8.17940528151894    1.03517736472926
H         0.42759913097350    6.73157495619849    0.30975595848227
H        -0.45252410243655    7.59794350641047    1.57098625798856
C         6.24322200363158    7.07251654350038    2.30996156787944
H         5.97080073215567    7.81271361807592    3.06807462709163
C         7.25080596707930    6.11091905374606    2.94132796947039
H         8.10152538944804    6.66411741939290    3.33112508685061
H         6.79376680480566    5.56368121306482    3.76355733434280
H         7.61604301138650    5.39176826638163    2.21435515963430
C         6.87291073685363    7.82825831968900    1.13574729596784
H         7.73015690097362    8.40104157199805    1.48113188742112
H         7.20951689649745    7.13974453882896    0.36592504512639
H         6.15504394751868    8.51479432617547    0.69130449149296
S         1.63292541808972    4.69357209705246    6.68116691376153
F        -0.69282571631018    5.82013463631776    7.35047108426716
F        -0.79234120232246    4.63129222242240    5.56058288659912
F         0.16574258016451    6.56152728376552    5.51836504922398
O         2.20992781858067    4.41987079240320    5.36452629758578
O         2.35906015002612    5.80727219412601    7.28876723202860
O         1.34334795896762    3.57810310732210    7.50519310342720
C        -0.01961773962468    5.45995901842793    6.25976460866408

