95
CSD_code = EBAGAS | q = 0 | S = 0 | Stoichiometry = C33H44F6HgN2O7S2 | MND = 4
Hg        6.01211398567876    4.05392065283246    4.60202005276351
S         8.09497053171689    6.06753493114140    4.44673634706620
S         8.11562043981623    3.41888281847890    6.14479055080977
F         9.14705328012092    8.51260566276288    4.93236547449236
F         7.98126182675793    8.39737073084618    3.12638188606829
F         6.99843366180538    8.46217183683873    5.03477716391946
F         7.36762869948018    1.13107778676660    7.47094449332628
F         8.87218361556858    0.77800445068422    5.97162083811025
F         6.84514936309239    1.20618982506178    5.38330172027367
O         6.33901278282559    3.12640613592003    2.42523781967696
O         6.67698408358075    5.82810682034713    4.06482838554316
O         8.36631504574405    5.78557893862399    5.82366310966188
O         9.03405014634274    5.74526399945659    3.42742458559496
O         8.19248359118576    3.47324900341062    4.68945589986654
O         6.77580105604642    3.82649131426241    6.57977861521498
O         9.24276400307557    3.60293562830539    6.97695448384841
N         3.35202941934234    4.50728245407604    6.27255701555834
N         2.98202758565999    4.76083486815247    4.17581354371175
C         3.93027451736204    4.40298398250066    5.06345592127061
C         2.05732274360025    4.91930515314417    6.14725096130752
H         1.41452021056647    5.04733120420811    6.99443356141602
C         1.82270639829065    5.08342302013462    4.82142439836065
H         0.94622963789235    5.40123978329072    4.29504318421057
C         6.77556954531118    4.10003766233407    1.47276467599683
H         7.70696577134746    4.56563220622930    1.81711255746205
H         5.99478130057274    4.85748549923721    1.39175474318941
C         6.99551603402593    3.30215191390800    0.18238968786989
H         7.79684629820230    3.73219888063113   -0.41253587533836
H         6.08458331373079    3.29108887321879   -0.41556433962062
C         7.33420482807156    1.89036773335605    0.68877251420051
H         8.33436602298915    1.57805992421860    0.39882345561567
H         6.62286934119598    1.15860929009201    0.30637703795883
C         7.22205413088842    2.02117454758634    2.21446173392776
H         6.78596953139473    1.14848225404417    2.70403760475440
H         8.19799209349339    2.24400679944706    2.65949949750557
C         8.06149838777844    7.96133502411120    4.39015085074696
C         7.81644516971877    1.53549423704691    6.27699736150111
C         3.97833060185258    4.17354330362659    7.51346517800231
C         3.75271985784999    2.89866208346389    8.03805746669190
C         4.38691050581912    2.56563447864878    9.22642937262310
H         4.26077364521074    1.58043188805972    9.64481180784518
C         5.19322803414198    3.48136041013985    9.87241720840920
H         5.68516978670147    3.20503338458828   10.79270191121682
C         5.38359304340186    4.74436464509383    9.34642140021480
H         6.02254856923639    5.43689051636606    9.86677770220930
C         4.79423833068131    5.11651191097937    8.14612175160753
C         2.89157208489022    1.88830334094459    7.31294535562776
H         2.24048921329646    2.40850432626329    6.60187644842672
C         3.79793821298983    0.94276789155076    6.52128666437228
H         4.40741911783566    1.50704297538865    5.81414310102157
H         4.46788876743487    0.41252983311413    7.19252135557540
H         3.20267115784799    0.21534186902123    5.97285238508007
C         1.98684942142639    1.10093526157854    8.26341577906003
H         1.43437519159500    1.77486559473957    8.91416517724235
H         1.27381736686378    0.51303151024749    7.68955763107203
H         2.56207911853464    0.41769420835809    8.88069152262015
C         4.99171818292661    6.49534248763474    7.55677092228715
H         5.02048163183610    6.40600355795070    6.46035031242635
C         6.31068280343534    7.13850354529856    7.97888020295224
H         6.44450129227817    8.06922533524773    7.43355101933380
H         6.32245874230168    7.36953802276994    9.04181064385394
H         7.13996724853681    6.47957229311308    7.73355692078726
C         3.81868940413863    7.40179940153788    7.95546987766524
H         3.96466694513226    8.39633661276019    7.54127015443958
H         2.86835085062352    7.01561631819403    7.59309683692286
H         3.76467509334394    7.48435273338023    9.03929430135393
C         3.14130836360351    4.77607780998421    2.76011585285091
C         3.06286583601202    3.56591881579451    2.06160519872912
C         3.16553309167891    3.60994922437768    0.67846491025164
H         3.09589278908143    2.69889784977753    0.10741167502462
C         3.35018037705829    4.81093372072705    0.01816217411923
H         3.42905779738509    4.82562515372002   -1.05870408587862
C         3.42587123882863    5.99250997379459    0.72788569392893
H         3.56492356110460    6.92209575044548    0.19959108769003
C         3.32141983943968    6.00016413701541    2.11422175698163
C         2.79736534154503    2.26651234905130    2.78598881373722
H         3.22205993498302    2.34091070659918    3.79230107901880
C         3.45545940715582    1.06706988539944    2.10720035747013
H         3.42700021815162    0.20977295947784    2.77501167984436
H         2.93885939241032    0.79457627020918    1.19012204598718
H         4.49197476055041    1.29566446239200    1.88329755663187
C         1.28396466690984    2.04811412557510    2.90199131445033
H         0.81231822857860    2.85561469570829    3.45720627741306
H         0.83363819741347    2.00323432515888    1.91275026414490
H         1.08100604234281    1.11246237298646    3.41702125351150
C         3.38528152260101    7.30477629581866    2.87006893660292
H         3.36507556083125    7.10168563729272    3.94452035852858
C         4.69734468461141    8.03187235743433    2.57401761522330
H         5.53530658948107    7.38460094069537    2.81939843466212
H         4.76898678417571    8.32015590637504    1.52897384039148
H         4.76678991373822    8.92975566542230    3.18237609755139
C         2.17800658303126    8.18108530831756    2.52052981598649
H         1.24543211402679    7.66326306289284    2.73663108958778
H         2.20596207599041    9.09865703228863    3.10243053425096
H         2.18471247090486    8.44448761833453    1.46619644258174

