45
CSD_code = EBAGEV | q = 1 | S = 0 | Stoichiometry = C16H21Cl2N4ORu(1+) | MND = 6
Ru        1.44080045701247    2.56443287415435    2.31962582945038
Cl        1.95155871599006    0.34220224164109    1.70041645749374
Cl        3.06134389603018    2.39531998745320    3.85141112068740
O        -0.17512409895681    2.80368346520385    0.01820925137309
N         0.38587859114458    2.68458888851731    1.02134243927384
N         0.81856544210586    4.59278434928135    3.13862013761248
N         2.97024907739361    3.32592872459464    1.04111496617169
N         0.10461462220765    1.81002818373764    3.73948536575055
C         1.06954813342784    4.74447485451745    4.59685605430543
C         1.08004245360508    6.17311371452492    5.13777378131872
C         1.58287916637055    5.57031607356165    2.34498575044635
C         3.10114250316282    5.35959767659299    2.40765786024405
C        -0.62555302016524    4.78037259733511    2.89731369847667
C        -1.51189701440115    3.52452969981257    3.07827768768539
C         3.62092237639705    4.45963541045092    1.32253452700145
C         4.75889399992739    4.82760271213218    0.61104073633318
C         5.22537343302957    4.02353712510873   -0.41272863284550
C         4.51246183226865    2.87594925540562   -0.72240342511936
C         3.39466749812437    2.56514025516250    0.02822405738508
C        -1.03203543387717    2.46008558116041    4.02558307049448
C        -1.80742936190612    2.09381122739529    5.12025080040125
C        -1.41352253362348    1.03497813048702    5.92183656093795
C        -0.25277501977493    0.35529313853619    5.59218852791699
C         0.47885449791054    0.78031749401026    4.49711478989485
H         2.02375872034513    4.27363561425316    4.84320100923775
H         0.29071588806443    4.18025747532379    5.11479646771486
H         1.96669141554260    6.71950586999386    4.82984587237781
H         1.09256753286377    6.11670076137039    6.22289075100036
H         0.19800906901539    6.74046180853389    4.84970322596111
H         1.34861934964047    6.58369763055631    2.68592098371048
H         1.26014046717171    5.49204786664081    1.30034754754724
H         3.59567898660688    6.32666925847520    2.31258927691487
H         3.38829157600741    4.93957412263445    3.37431686856693
H        -0.77530934999300    5.14215253719247    1.87683930195830
H        -0.99276422545488    5.55917295286312    3.57286791806622
H        -2.49541574481062    3.86307649392307    3.40663970843366
H        -1.66242948793222    3.03493867826567    2.11094431535116
H         5.27263017150269    5.73977557040715    0.86969841334254
H         6.11431711890610    4.29154556397341   -0.96150071380406
H         4.81483714266458    2.22372094304576   -1.52479615360838
H         2.83005323551673    1.66638361653319   -0.18423498582997
H        -2.71647981691454    2.63338999817621    5.33383600730923
H        -2.00549762106367    0.74362669455128    6.77508437072525
H         0.08893573888985   -0.48812954455061    6.16876141955983
H         1.38758962002786    0.26377242706030    4.21541698277466

