49
CSD_code = EBAGOF | q = 1 | S = 0 | Stoichiometry = C17H24ClN4O2Ru(1+) | MND = 6
Ru        3.66136380300877    4.35489402811137    1.17898021818231
Cl        4.20846801115848    4.51839153636877   -1.10095000707147
O         1.19889388461927    5.65809116006814    0.66118452984995
O         5.31295578770337    3.38982471585659    1.37180747150788
N         2.19708132093820    5.14683008027659    0.96534149191450
N         3.42943990891195    4.12095468570645    3.37128298753829
N         4.68848300117532    6.17822720280586    1.37901730778797
N         2.77593992012792    2.44792565365618    0.86359311490979
C         6.21508426225586    2.82371691731310    0.49242198053965
C         2.00594044640336    4.31121125335822    3.73723025272982
C         1.65729904296497    4.09090182085686    5.20951743724793
C         4.25128441897299    5.12343217537924    4.07437036559523
C         5.64088766225696    5.36542417576677    3.46800812056549
C         3.91137939559797    2.77497265814832    3.71985925606169
C         3.08543415505562    1.60488948551761    3.19052728137353
C         5.60215392912399    6.35151917849355    2.33802823887660
C         6.47157361347033    7.43774007480275    2.31571483588187
C         6.38143173142446    8.36995565972553    1.29787190067561
C         5.38696904214276    8.20957579181964    0.34508099647249
C         4.56498855457727    7.10081021428177    0.42033082415019
C         2.90964995005459    1.41577050899869    1.70417076416755
C         2.73492438579427    0.10569189389561    1.25675579234176
C         2.37941772512301   -0.14462238828798   -0.05471772307632
C         2.15176281868440    0.94042665712378   -0.88692993125570
C         2.36733389089119    2.21078412559166   -0.38965677283912
H         5.72071342248202    2.14259471166694   -0.21682632134923
H         6.95701593055856    2.24708690273982    1.06413654637603
H         6.74678476832450    3.59224655141954   -0.08702559910088
H         1.40025112790446    3.64102349718915    3.12089538535792
H         1.73399235483005    5.33819672977966    3.47394887319681
H         1.85595763823043    3.07439330437944    5.53612930783414
H         0.59377174788046    4.27522591459134    5.33611929260548
H         2.18952938219975    4.77993042056610    5.85868265427996
H         3.70464843415969    6.07178657622355    4.07581011243599
H         4.38881819124337    4.80955688083662    5.11562707789240
H         6.30098186029139    5.74732093207199    4.24716896096377
H         6.06482329444384    4.42788560937295    3.09762290633139
H         3.95745151547193    2.67411644876986    4.81156969678671
H         4.92659745164012    2.67458221217049    3.32688240122575
H         3.55827297887248    0.70138201949396    3.58241777953479
H         2.07597357342413    1.63078069499985    3.61512426050532
H         7.21227314142444    7.54068205178506    3.09279208090365
H         7.05879044211173    9.20836353206195    1.25809124503381
H         5.25114084285177    8.92226598880109   -0.45134287731516
H         3.79055995112973    6.94727083208666   -0.32060087873743
H         2.87324017654362   -0.71102390321808    1.94767861808038
H         2.26237188203594   -1.15606800615133   -0.41061547039751
H         1.82807296584154    0.81266393172584   -1.90643241435211
H         2.21132626366561    3.07319690100132   -1.02539437221976

