133
CSD_code = EBAHIB | q = 0 | S = 0 | Stoichiometry = C69H54IrN9 | MND = 6
Ir        8.51541854174050    5.89573487656883    4.34996244181281
N         4.28018807659103    9.50447270307231    3.72296896843075
C         3.39879065591194    9.05001645339673    4.67755210322230
N         8.27685977196199    6.35960835288867    1.50741346070158
C         3.27533025398891    7.78628388828365    5.24024805202851
H         3.93210567173788    6.98068750194284    4.94908084702074
C         2.27950038391752    7.58884345143348    6.17646526542334
H         2.16495447193122    6.61400522235616    6.62974073275843
N         9.89817130192901    4.95069262048110    1.61458324291245
N        13.39094403128015    8.43939646280708    3.65860318782550
C         1.41271007946121    8.61578513971960    6.54575345096741
H         0.64768246874544    8.42171288104426    7.28314908678123
N         8.82176781497528    7.59111436714031    6.65687035308524
C         1.51403168173676    9.86799355916170    5.97385852682992
H         0.83312233041027   10.65962151354591    6.24871748651938
C         2.50850984619370   10.09262981385445    5.03104074219576
N         7.03692603821117    6.48852555288999    7.12107953683534
N        13.30221718163452    3.75158065102142    6.15398522970529
C         2.88645374697746   11.23126235707705    4.24407607186037
N         7.94238286634635    3.08202278780463    4.89562025175702
C         2.40755743422443   12.53174055109312    4.15047051833159
H         1.56650588029556   12.84897020846711    4.74892500046472
N         6.11543341796691    3.72158171309673    3.95855899831249
C         3.03103514406868   13.40515335148593    3.28286812377095
H         2.67280486956431   14.42004996060374    3.19263502915988
C         4.12925500426212   13.00102346350366    2.52532173262486
H         4.60641279103115   13.71287960616063    1.86758980260489
C         4.62351796024169   11.71386671185367    2.59982975278471
H         5.48543418880231   11.41356366296574    2.02352551144865
C         3.98564077914639   10.82273093932124    3.45214280015629
C         5.30183635773287    8.74023696043669    3.12848677684955
C         6.17564266342923    8.01821082818019    3.93616858917652
H         6.06079342390569    8.11605020700615    5.00750902430073
C         7.17285292891559    7.19640382803754    3.41406393195354
C         7.26196634839156    7.19064565290431    2.00669399017938
C         6.41905610793535    7.91616578042235    1.18098115346814
H         6.51798250964485    7.87701334354397    0.10562995460084
C         5.41887740824740    8.68714038431971    1.74443701118341
H         4.72798103338540    9.23281654647889    1.11977782041353
C         9.00567393803229    5.61411138682516    2.38012283681034
C         9.72468830955990    5.27212423352648    0.29319531102735
H        10.33842788458003    4.85827892583557   -0.48060597148385
C         8.70647093944378    6.16168453388123    0.22480252918871
H         8.28175303059539    6.65434858839821   -0.62475077617414
C        10.86858727047473    3.99120115754262    2.07503328725120
H        11.79525793368036    4.12943094638565    1.51038056409439
H        11.05832949836972    4.18843869766827    3.13070118551600
C        10.35615638679955    2.56351416465282    1.90747993950709
H        11.09844656587351    1.86217250270751    2.27727244566377
H        10.15461628258722    2.34104460581663    0.86141274096717
H         9.43882100186884    2.43000528112435    2.47555588593618
C        14.10300956760777    9.59801119454647    3.44219421393252
C        13.73120715319778   10.91605841555552    3.67024723524158
H        12.76637091013420   11.15677917915809    4.09104441572603
C        14.62936352055975   11.90838517589710    3.33001106980797
H        14.36459216548497   12.94209672822234    3.49951427389223
C        15.86869061380128   11.60689011686535    2.76792681389794
H        16.54424463817354   12.41174477263005    2.51755653412876
C        16.23615255360843   10.29980573618998    2.51925494429455
H        17.19084726036009   10.06775591400082    2.07086902583798
C        15.35022160108398    9.28362202021201    2.85259896767134
C        15.38731071313779    7.85488450676306    2.72389616367463
C        16.33802762347670    6.96234598617874    2.24558347562062
H        17.28131474614850    7.32359346111326    1.86317147002565
C        16.05355439243577    5.61223045234122    2.27230932296432
H        16.77878969642864    4.90029368820382    1.90661271593518
C        14.83941305169102    5.14744063161631    2.77275778276786
H        14.64686326300150    4.08434005700077    2.78547252011965
C        13.88287316135209    6.01477888981885    3.26142485161867
H        12.95337203290858    5.64298797049984    3.65941390878688
C        14.15660964240566    7.37489120053886    3.23078380229484
C        12.18613046147400    8.33569252990141    4.38027829987331
C        11.12719929192765    7.58483220607975    3.87670252247956
H        11.23633245656364    7.16733488553235    2.88486108053739
C         9.97566936935875    7.33114734865552    4.62146890476226
C         9.94225773445954    7.94024164232542    5.89112280589841
C        10.94915168588453    8.75537396134280    6.38193155064668
H        10.87429984902045    9.20398753552193    7.36210440773747
C        12.09009429478371    8.94260993146424    5.62771355094101
H        12.91773490141360    9.51848175821745    6.01227701374257
C         8.01991608902246    6.59895725343780    6.19943359194283
C         7.23612250976475    7.38738062528727    8.13775176593332
H         6.56618309899814    7.46640129701472    8.96942889845107
C         8.35934342163072    8.08391513028259    7.84371057625174
H         8.83392833567892    8.87926250298256    8.37953148875336
C         5.96558442780189    5.52916991673333    7.10165436575929
H         5.07047196142380    5.99416683160042    7.52556515748749
H         5.77126620966726    5.27076167692025    6.06008039527437
C         6.33669970624005    4.27539066568464    7.89044805429770
H         5.54208448114242    3.53755413852769    7.81883378584060
H         6.49639966631711    4.51514419750297    8.93930036435594
H         7.25353151096988    3.84716329381835    7.49281364261825
C        13.87603858954087    4.90988552920685    6.64355970329413
C        13.29682713890061    5.94821755437152    7.36043003732946
H        12.24946638323924    5.93452278342535    7.62177413202483
C        14.10351711884736    7.00669984073509    7.72847716645813
H        13.67222743492762    7.83057700605071    8.27792765481732
C        15.45891304299339    7.03634312443361    7.40784525966266
H        16.05348070840731    7.88854593937036    7.70277350404772
C        16.04947511584533    5.98885261758440    6.73092588456103
H        17.10285099548734    6.00282893739712    6.49504049766921
C        15.25867007590067    4.91298897062363    6.35122849534065
C        15.52621572460199    3.69549474725552    5.64105433271030
C        16.67339273956641    3.15520998653247    5.07713870899013
H        17.61818915879173    3.66993446800936    5.16508235998581
C        16.57626824783013    1.95971213123114    4.39382427087261
H        17.45666056601122    1.52097843494845    3.94759669992036
C        15.34970800351908    1.31414213491185    4.25621812895503
H        15.29868991323805    0.39021242904327    3.69786781623582
C        14.19493786168676    1.83099275933067    4.81227142762931
H        13.24747277187775    1.33095818619894    4.67872798465985
C        14.28934384858098    3.01807584483411    5.52505639983090
C        11.92119408822540    3.55009104099416    5.98154555433293
C        11.32634176880688    2.31040024027890    6.19032540703512
H        11.89884698291352    1.49074458780888    6.59686354813333
C         9.98917987200436    2.13920071316140    5.87328376881878
H         9.52841391183522    1.17343412750729    6.02837390542710
C         9.26929062880373    3.20166019330201    5.34770865091170
C         9.81448817576817    4.48818693621544    5.17678717921106
C        11.15217945447265    4.61651143165497    5.52679324577757
H        11.64048270508695    5.57063326797663    5.40149219713325
C         7.12809007115091    1.98517154833773    4.83601192537638
H         7.40710819381861    1.02085261736775    5.20656705746830
C         5.97860197575283    2.38707350706926    4.24309347989243
H         5.08791164418966    1.83944514827288    4.01203852354952
C         7.32756288495635    4.16799497073238    4.35586185071342
C         5.12966432089784    4.50191030551975    3.25572720756689
H         5.35074650759182    5.55620448558871    3.43593129659651
H         4.13724106741111    4.26225546007374    3.65094753516860
C         5.17669154734163    4.22759722381790    1.75519384288095
H         4.45306635111556    4.85586261835297    1.24413114902784
H         4.95001470672995    3.18494829862991    1.54196410998572
H         6.16742542207022    4.45515354493447    1.37039782936749

