105
CSD_code = EBAJIB | q = 0 | S = 0 | Stoichiometry = C35H66OPRhSi | MND = 6
Rh        4.76224563612954    4.07513870364848   12.12545486902715
P         4.64802952815235    1.85947095077985   11.47958724086459
C         4.71974867349273    1.66070871285629    9.62480759793595
H         4.51180272388686    0.62117456611142    9.35138673440864
C         6.08635121867628    2.04297092214318    9.06759773503799
H         6.83788310987269    1.33601011642858    9.42225846999432
H         6.35355452429027    3.03619956753323    9.43138564811598
C         6.08021740380227    2.02132269740559    7.54020947877672
H         7.06288580491878    2.31701760470826    7.16831160728353
H         5.88524571158206    1.00298947046965    7.19047905214962
C         5.01352813172942    2.95525009657394    6.98220811479075
H         5.01815266764105    2.92109623604248    5.89063407624064
H         5.23261051723689    3.97886829506273    7.29046568233311
C         3.64503061495590    2.54900253290765    7.51458534984971
H         3.40473761518194    1.53920938587415    7.17054168246984
H         2.87524800655102    3.22278505198619    7.13173789463387
C         3.64818424566366    2.58287095696313    9.03900772934477
H         2.65986375684523    2.30077807970208    9.41211602440252
H         3.86597364824340    3.60356643906020    9.37775044260818
C         6.15915554870231    0.97343455183732   12.09601552694469
H         6.95334450347576    1.53574188981532   11.58904063006450
C         6.30636235997163   -0.50907287273072   11.76909870631581
H         5.55898839055427   -1.09410210454836   12.30839471448409
H         6.16716992110774   -0.68496839377735   10.70013787277002
C         7.69618092752056   -0.98415172925737   12.19323534901345
H         8.45407000665241   -0.44842202977320   11.61791392772124
H         7.80497649874846   -2.04982064570850   11.97699858678049
C         7.92158284965119   -0.73057653600034   13.68157357120196
H         7.20296922534862   -1.31688039163286   14.26078371675431
H         8.92327218978965   -1.06115040543421   13.96345372560412
C         7.75093538697634    0.75080281298664   14.01042208700595
H         8.50715513211066    1.33138059327759   13.48339466260079
H         7.89073258765981    0.91104130381668   15.08168843498123
C         6.36386053327084    1.22685933560186   13.59071095959400
H         6.25470256414133    2.30267930312430   13.77591512726371
H         5.62197033581447    0.69713673961012   14.18722782311095
C         3.11940833099136    0.82561189171364   11.91337710981869
H         2.29202137271693    1.54037565702337   11.80904764797908
C         2.78061411807188   -0.37220951730455   11.02408062495425
H         2.71248596116205   -0.07568030610802    9.97783956490025
H         3.54857147319208   -1.14124537972879   11.11350081301021
C         1.42561910386309   -0.95665954172046   11.43054949519306
H         0.64809820416006   -0.20744298084354   11.26090356682522
H         1.19897189714820   -1.81892156709299   10.79965691124485
C         1.40956985319151   -1.36953710447918   12.89790465403611
H         0.42224439401195   -1.75069093952409   13.16591292469126
H         2.13211523833089   -2.17319780241061   13.05795464871546
C         1.77268233819697   -0.18026543393372   13.78019139605318
H         1.79312148789560   -0.48486788686126   14.82878146974035
H         1.01514944493960    0.59999102394572   13.67310817854657
C         3.13868091510359    0.36621679685782   13.37245664423743
H         3.87269080324207   -0.43059556170758   13.49526111906886
H         3.42156387708315    1.19214478101184   14.02769753323301
O         6.82312601886086    4.01104201874512   11.54903859468754
Si        8.16637942828219    4.80999928243229   11.31252480515085
C         8.84403379736635    5.53295607233390   12.98835305129138
H         8.25950558191202    6.43643211636359   13.20481370262642
C        10.30794971428482    5.96151794277427   12.96730862478272
H        10.48987701611148    6.70451489124486   12.19559988290059
H        10.95834823442875    5.11005624496504   12.78134419250291
H        10.59284530043179    6.39635225381592   13.92720661314529
C         8.63122182956461    4.56636206272327   14.15188404119109
H         7.63340508780791    4.13631995575744   14.12387171261381
H         8.77096791937810    5.06539949321633   15.11248945427454
H         9.34247131980216    3.74603197586865   14.09791609222843
C         7.82417923609515    6.35295563237212   10.17815861442640
H         7.38100945913263    7.12634218312507   10.81836566078782
C         9.04819281594509    6.99446941903471    9.53234474272154
H         9.74516084807401    7.34640483442379   10.28828389950462
H         8.75436555377438    7.85112567462595    8.92255562311315
H         9.57205508185017    6.29151488312270    8.89045937359647
C         6.79419984973148    6.01260663682808    9.10306785899682
H         5.93588361642455    5.50595396176750    9.54576308694932
H         7.22800790193422    5.34695316610707    8.36063501494825
H         6.44300523978883    6.90952058555148    8.58906911788958
C         9.62063083767278    3.80277383516820   10.52350334850161
H        10.48169366561650    4.47794620010461   10.54159485715856
C         9.99677031507569    2.56732840712249   11.33198160402489
H        10.23656561671929    2.82692620892506   12.35891633393538
H        10.86348903442054    2.06499163971013   10.89780730020803
H         9.16774366374078    1.86363807082938   11.34056674353041
C         9.42299000787616    3.38069551291408    9.07158385548945
H         9.14074362004084    4.22065858804869    8.44468522225784
H         8.64735255853048    2.62606774212584    8.99863338557052
H        10.34521349896743    2.95596565176505    8.66958791100746
C         2.69918956389920    4.43176831894879   11.93220082898331
H         2.21024561627576    3.67382704788689   11.32082977783445
C         2.97463574131414    4.09300264509384   13.26446703319211
H         2.70260079960448    3.08768836839444   13.57336530662141
C         2.95449212964929    5.09087193432941   14.40523722259684
H         2.23446457425842    5.87895317489977   14.18131339141301
H         2.60813359557985    4.58901788014154   15.31109798242183
C         4.34827997982225    5.68490603981858   14.66781686063351
H         4.87599116683972    5.05289134395812   15.38617945715622
H         4.25965424488566    6.68046015094450   15.11568736515713
C         5.18658543179116    5.77591005391919   13.41664104154479
H         6.25631543654579    5.73559099941497   13.58969831323338
C         4.76093182679029    6.27687093284958   12.20844618761835
H         5.52542937044911    6.57441873714844   11.50037057406088
C         3.39540352955970    6.87700707481773   11.97031278791011
H         3.02625691118410    7.31723849644768   12.89727375640564
H         3.48387996032517    7.68461525442995   11.24122690708682
C         2.40636756426564    5.82877144208740   11.43550689070679
H         2.45823175599052    5.81513877338525   10.34358406789052
H         1.37929581791989    6.09994024879579   11.70517477256373

