59
CSD_code = EBAKEZ | q = 0 | S = 0 | Stoichiometry = C18H32FeN6O2 | MND = 4
Fe        4.65295034738612    7.12440733939977    4.22411212352543
O         5.20410607917905    8.05073475522502    6.82146176113293
N         2.59542658882721    4.77710107461217    3.51906470424812
N         1.85535718413493    5.86516747182829    5.21215949713051
N         4.92410449619878    7.71802946456795    5.69441640267869
C         3.41911411468910    4.33478299277892    2.41258624043823
H         4.40845311129503    4.78239182169052    2.58695104016464
C         2.91348716544855    5.78719059866626    4.36852812119963
C         1.73931787628830    6.79755675445999    6.31563471918105
H         2.53928448527641    7.53374798511140    6.16907094530810
C         0.90815733119667    4.92886977478933    4.89727112060715
H        -0.00551188186666    4.81442619979160    5.44205584339895
C         1.37012438510208    4.24883011013749    3.82461630575582
H         0.92263806429323    3.44911079252544    3.27239414320932
C         2.86017883327427    4.86343485584054    1.09273010232049
H         2.87207050705624    5.95018360906628    1.09147349981912
H         1.83736206430283    4.52284290517439    0.94298737125812
H         3.46836835173957    4.51174454832805    0.26351060095418
C         3.54257851060776    2.81199525777784    2.40129693557254
H         2.61707964568809    2.34319025833504    2.07471631874132
H         3.78826996418512    2.44192086120383    3.39447986548087
H         4.33121760847131    2.51412957267839    1.71534568244224
C         1.96319554635077    6.06970028822907    7.63989737273096
H         2.95037743795459    5.61367590751967    7.65097075823446
H         1.21343559614837    5.29433102698353    7.78894824622621
H         1.90408708985657    6.77586185101120    8.46287997343681
C         0.39392712673556    7.51718576734837    6.28225402989137
H        -0.42529662513047    6.84350032502260    6.52468046649273
H         0.22054408689973    7.94311293035684    5.29676901439525
H         0.39679316484369    8.32396067556788    7.00975131170611
O         4.10278070689123    8.05092468783978    1.62660283228783
N         6.71036490247957    4.77749593274876    4.92995168613680
N         7.45093970215680    5.86557701076636    3.23707984756877
N         4.38211438628297    7.71788727421379    2.75369660273881
C         5.88631877861650    4.33505410393071    6.03611645978196
H         4.89696915090248    4.78248339856660    5.86135624648446
C         6.39242659651774    5.78739067562557    4.08021080238335
C         7.56722319933233    6.79788960643296    2.13355939901352
H         6.76755913615905    7.53440139146360    2.28016975989855
C         8.39825239536004    4.92958595916348    3.55253500750346
H         9.31221593268286    4.81533713022276    3.00821114126184
C         7.93596848732825    4.24954960035254    4.62505549645992
H         8.38342182893417    3.45003853728221    5.17760826048775
C         6.44463512602545    4.86382620149929    7.35618931304156
H         6.43240501859232    5.95057358049931    7.35749688330223
H         7.46750466443182    4.52354453699377    7.50627161773488
H         5.83626476000707    4.51190866223604    8.18518083183504
C         5.76310283354341    2.81224478285286    6.04734302195593
H         6.68861523538483    2.34359194979592    6.37408995010257
H         5.51766095357459    2.44214243348454    5.05411029742712
H         4.97438763898060    2.51424593842101    6.73314507368421
C         7.34290953054614    6.07006936960504    0.80934682158564
H         6.35533092980927    5.61491147323858    0.79818274972030
H         8.09201624547448    5.29402410798982    0.66051710467561
H         7.40276733246288    6.77607703744008   -0.01371851348998
C         8.91291510292166    7.51696781732903    2.16670051217727
H         9.73178680550058    6.84305707795090    1.92371456235714
H         9.08683602285680    7.94247699399075    3.15226875918569
H         8.91010833981093    8.32400495205152    1.43949295500618

