35
CSD_code = EBAKID | q = 0 | S = 0 | Stoichiometry = C10H16FeN6O2 | MND = 4
Fe        6.07003510976136    2.41795655737254    4.40710775405249
O         8.52226304566379    1.44526100469536    3.43729438947520
O         4.05185747067490    4.25738614379122    3.73927276533251
N         4.83725686498876   -0.53517506533255    4.05236063458933
N         3.68737207819253    0.59793392070504    5.45783873188243
N         7.51832254126039    2.18574682846584    7.21351653881115
N         6.71824667703669    4.16362630879922    7.03941459080660
N         7.45337434549697    1.87969433377047    3.78643758520281
N         4.95735866203620    3.50257738178516    3.99034609462753
C         4.80227034256664    0.66435360977827    4.68553720007170
C         5.83786236116131   -0.95870997383523    3.11266327250089
H         6.37743618230623   -0.08213008488615    2.75529905497831
H         5.36656795806567   -1.46105382533394    2.26779617419914
H         6.54685354286019   -1.64416497457797    3.58320881192441
C         3.77817776953465   -1.32058634504703    4.42067891337324
H         3.63047196910829   -2.30636906795468    4.02969424905954
C         3.04883589698439   -0.60291792113993    5.30478938007326
H         2.14508090395806   -0.84523214879011    5.82543158493708
C         3.19798486157689    1.65341833081360    6.30001352190317
H         4.02483780079619    2.33260610282857    6.51879353632183
H         2.79860868515124    1.23796541263759    7.22584692036494
H         2.41306289019534    2.21843679894689    5.79251378106244
C         6.76758835707302    2.96939802844457    6.39687491807724
C         7.88375724972263    0.82265928700474    6.94546964051223
H         7.12226993046512    0.37685632440070    6.30195221355022
H         7.95723941777580    0.26716451475699    7.88040842033248
H         8.84177215171295    0.77553504469426    6.42303402215650
C         7.92662287259502    2.87408729077799    8.32339981576152
H         8.53520993565049    2.43101128818770    9.08491434088577
C         7.41700822826430    4.12207003883803    8.21606159907645
H         7.49545694367233    4.96792107858321    8.86781533672509
C         6.03124009918172    5.33802899916470    6.57853660683320
H         5.80049005004422    5.21872283614100    5.52091034246265
H         6.66340351947428    6.21619443781599    6.71137944071861
H         5.10020328499575    5.48432750371420    7.13158781735828

