101
CSD_code = EBAMEA | q = 0 | S = 0 | Stoichiometry = C37H57MoN3O3 | MND = 6
Mo       -1.41285482758784    8.68729470844418   -1.19478607345139
O        -2.95049566453487    8.00115836341322   -0.32616799892417
O        -2.27158279741871   10.50925165008110   -0.83691229794987
O        -0.42706473517002    7.35691259356148   -1.04132707698490
N        -0.84205786271722    9.17683636505146    0.95931674809090
N         0.19204783645127    9.96271479746455   -1.57867923144956
N        -1.94911111505591    8.72285517876599   -2.85079082605226
C        -2.18712981000006    8.55846899727631   -4.22293227545846
C        -1.50785777427553    8.83212298312567    1.99423096492584
H        -1.11084658818429    9.09492995613769    2.98770685953120
C        -2.70405209140468    8.04884337519227    2.02248743099601
C        -3.21948426636646    7.68007841768108    3.27425545183064
H        -2.74635456345722    8.09627459150630    4.15254358114542
C        -4.27745266325646    6.80878401365299    3.39786067999344
C        -4.78180499825556    6.23968162045606    2.22122155534093
H        -5.56324689735624    5.50690094672902    2.30787975369458
C        -4.32502103021947    6.56372895210990    0.96117734938889
C        -3.31035686462744    7.55627698961993    0.83342776915727
C        -4.82076555879958    6.46436786436850    4.77803014169187
C        -5.27566127027681    7.75582793701213    5.47260853388801
H        -6.05137244772737    8.24343465920475    4.88614214845750
H        -4.45131778615555    8.45311405806649    5.59199472061414
H        -5.67715586400660    7.53162759876049    6.45880506893185
C        -3.71168558878804    5.79512945980089    5.60200575923720
H        -2.86337978729824    6.46045464454493    5.73618526677244
H        -3.36224349942137    4.89552167654080    5.10002839218827
H        -4.08737480130145    5.51922239965520    6.58525634473859
C        -6.01688100115635    5.51004536925123    4.72473435657111
H        -6.38172970325398    5.33137567647275    5.73441109909551
H        -5.73550137539929    4.55055384275467    4.29756714643247
H        -6.83136066888813    5.93623111310423    4.14381854472895
C        -4.81794891149383    5.85174905615422   -0.29389451939731
C        -3.61176606568512    5.16626356100444   -0.95721365450547
H        -3.92800430119547    4.65859211180615   -1.86631282240011
H        -3.18340098091675    4.42829872862615   -0.28098476200624
H        -2.83535924003693    5.88989281066421   -1.21952170395846
C        -5.86523998712275    4.77463888294755    0.01322450181450
H        -6.76083814529806    5.20816315231866    0.45306893262341
H        -5.46735037069113    4.01521572712831    0.68228239304455
H        -6.15259510375979    4.28308827561917   -0.91391622941384
C        -5.44474885488250    6.85608338909943   -1.27035378344976
H        -5.87496720983451    6.32670963209860   -2.11864917116957
H        -4.69177915775363    7.54810154891753   -1.64058603988839
H        -6.23503318131684    7.42097243190617   -0.77927104394230
C         0.08266515302505   11.09439272197269   -2.19114925121074
H         0.99941597545928   11.62052449649495   -2.49041334202387
C        -1.13956648315234   11.75996904987212   -2.47425599401909
C        -1.14861264044937   12.81399211959188   -3.40809545188025
H        -0.23851771124695   12.99156048643373   -3.95999966190928
C        -2.27732475469725   13.55696826699785   -3.63318022002766
C        -3.40755423672025   13.27265722325026   -2.84262466694984
H        -4.28726059253863   13.87168965173693   -3.00634670969087
C        -3.45040705133870   12.29274610292078   -1.88187343106146
C        -2.30266879429380   11.45629464013906   -1.70202448096257
C        -2.36544359525107   14.66092386776672   -4.67556799407231
C        -3.45483645246538   14.29695886117251   -5.69414096503188
H        -3.52070222187510   15.06305260173131   -6.46403759923492
H        -4.42768043668954   14.20738067137931   -5.21913726534730
H        -3.22038999288349   13.34705507939917   -6.16981068408755
C        -2.71699937210235   15.98727943584390   -3.98724177003566
H        -2.75587928100084   16.79091862878548   -4.71972957433307
H        -1.96351867125743   16.23487455225190   -3.24239309557783
H        -3.68179600705999   15.93483889832406   -3.49095346333084
C        -1.04918914615399   14.85297922121712   -5.43381555694006
H        -0.76783153921364   13.94555404089469   -5.96271429437138
H        -0.24620358224500   15.13574809277992   -4.75701460013614
H        -1.16540820611066   15.64781164325306   -6.16789534705570
C        -4.69092152911899   12.03997734065095   -1.03320805791295
C        -5.22039285424343   10.63104224899412   -1.32941134522747
H        -5.52502016225536   10.55639875031692   -2.37157184527450
H        -6.08101129065764   10.41360002796876   -0.69915001065926
H        -4.45038075583531    9.88537218540362   -1.13827597784190
C        -4.31672950649585   12.15112615917110    0.45231315974427
H        -3.57781399634113   11.39852586684580    0.71612940810679
H        -5.19814373805301   11.99934540770051    1.07263797546390
H        -3.90665387734967   13.13703510097260    0.66661225158444
C        -5.81697246234928   13.04236406586905   -1.31021305053167
H        -5.49519515799415   14.06252692052103   -1.11118553016910
H        -6.65846308998184   12.82254693638465   -0.65603700335757
H        -6.16764616302078   12.96949316254593   -2.33720551718433
C        -0.86558351956618    8.83237608188930   -4.96930859142738
H        -0.56789303102983    9.86853182105584   -4.81884011305742
H        -0.98009082357613    8.64519760791907   -6.03436997907495
H        -0.09222170259005    8.18196472408698   -4.56394079290032
C        -2.62669401488085    7.10617676148645   -4.48701690929549
H        -1.88954731556416    6.43476966750741   -4.05174191599778
H        -2.71620035175657    6.91497724762488   -5.55410496087832
H        -3.58455223939275    6.92304090591527   -4.00721876786384
C        -3.27125386464662    9.53350453118961   -4.72430856398347
H        -4.20277827454929    9.34381126911289   -4.19688234555608
H        -3.43555770311543    9.40721119289458   -5.79225633089170
H        -2.96748091410911   10.55962325820408   -4.52704003793357
C         1.50927367338712    9.54150096045345   -1.16600579396441
H         2.23188624545156   10.36050808434042   -1.30971525715117
H         1.80883443807978    8.68770656265212   -1.78611875744368
C         1.49944704443654    9.10137362306242    0.30985890802126
H         1.27951494560729    8.03276876140232    0.35625925519044
H         2.48601373144044    9.27990993943940    0.74157362966441
C         0.43120157234383    9.82573742358914    1.13936590650565
H         0.72204836371402    9.81795573034818    2.20292852536199
H         0.34657554020619   10.87433921018714    0.81919187053067

