58
CSD_code = EBANEC | q = 0 | S = 0 | Stoichiometry = C27H20BrN2O7Re | MND = 6
C        -0.04335395634237   -0.83183471535872    8.92148308737767
C        -0.78918938316110   -1.73251930031986    8.13125067275572
H        -1.16186703369255   -2.63962373512569    8.58724562849875
C        -1.06089539601761   -1.45791576390463    6.81958791193362
H        -1.63476787598156   -2.15881564038053    6.23306892360232
C        -0.59930119678286   -0.27285310195171    6.23185234935152
H        -0.80422768782495   -0.07773996935369    5.19053595203057
C         0.09435664584698    0.64113840268139    6.97731790867846
H         0.42305328430861    1.56907974036656    6.53954575228922
C         0.37022164743876    0.40191102407027    8.33686800096585
C         1.06173213667507    1.31994631673507    9.17307150579012
C         1.23547570603673    1.00552003147575   10.49761658316395
H         1.72945612250556    1.71187328610947   11.14110840683540
C         0.81436401422440   -0.23929256682138   10.99671333591803
C         0.93287720829030   -0.58588960258244   12.41739150659088
C         1.47044219078737    0.30945373245446   13.35733822576181
H         1.89244795858227    1.24556730476462   13.03757992048118
C         1.51740446704259   -0.01951670985963   14.68967189048144
C         0.93360283928012   -1.24628759412538   15.11011956876404
C         0.85756657124149   -1.65350403330828   16.45537965818480
H         1.28999308601073   -1.01892834671927   17.21100494125992
C         0.25419621163522   -2.83289553032673   16.79843476006688
H         0.20847528104137   -3.13571226594958   17.83313817770439
C        -0.32185370857866   -3.64355000126340   15.81195691410899
H        -0.82377232959216   -4.55640188209962   16.09370444613121
C        -0.25689884099244   -3.28319489480566   14.49450714348631
H        -0.72457950444799   -3.89803732880147   13.73760175195140
C         0.39011483683253   -2.09312554669838   14.09823461915803
C         1.57182572801383    2.63149811661776    8.67659544860691
C         3.20609859119938    4.28963811941501    9.05775449953248
H         3.17235402860484    4.41227207826131    7.97050679518678
H         4.24248199667180    4.21818263960899    9.39334288017569
C         2.48155860027331    5.44066651823612    9.74059238701295
H         1.45416798225773    5.49588442357391    9.38836838312035
H         2.98325889576334    6.37476769225651    9.50599162529923
H         2.47954677573171    5.30076938187325   10.81923640926312
C         2.17191856815393    0.92536252903056   15.63936428214210
C         2.87584246858816    3.14796419618815   15.93272273496999
H         3.86959950710126    2.78679304301543   16.21931945975025
H         2.28695055733756    3.28295056406810   16.84689254586635
C         2.95913830549089    4.43369648523868   15.13271041109295
H         3.55029799549761    4.27895000195475   14.23383547122246
H         3.42743487977838    5.20648873398217   15.73479698706596
H         1.96353624979531    4.76205700574531   14.84553295421084
C         0.68370501236626   -4.10180250823624    9.40571867467078
C         0.91508754081225   -4.74954809447900   12.06223333625155
C        -1.49448518884526   -3.46076845189913   11.16707964833570
N         0.24208294787157   -1.15172385755215   10.21017053016259
N         0.46156657868212   -1.78058220444691   12.77836623337739
O         1.10827539016550    3.25969178448386    7.75790296479885
O         2.61991993289477    3.03236734791859    9.39988837983601
O         2.59568869560345    0.64753330379990   16.73330063484019
O         2.24200655165014    2.15580684412039   15.12201099067257
O         0.95532525266302   -4.61715599624248    8.42215535590045
O         1.32259812958414   -5.64626965534793   12.64210357257144
O        -2.62494556147071   -3.65589658855711   11.21563049807162
Br        2.96857342110960   -2.65097902288972   10.97305426345314
Re        0.41411687229722   -3.13216573867158   11.08289209922525

