79
CSD_code = EBAPOP | q = 1 | S = 0 | Stoichiometry = C28H38CoN6O4P2(1+) | MND = 6
Co        0.94676873785429   -0.11574746432536    9.25745162004564
P        -0.45983745049287   -0.71941473671071   10.97856496861617
O         1.52353618176140   -1.91235120835221    9.11114050220846
O         2.29957367084104    0.26914255596535   10.52368653517147
N         0.91563795353998   -3.80702430948366   14.87957164896894
N        -0.85386621480796    3.96069376518830   12.81399037301710
N        -3.58404659892970   -3.37001850574797    8.03967471975408
C         0.32920501176729   -1.82894228943343   12.22603955634881
H         0.68728476049754   -2.71186869453498   11.68768321950647
H         1.21152311043158   -1.30643575513408   12.60819664718007
C        -0.55051126622959   -2.27106957380282   13.40209742567374
H        -0.88709120327271   -1.42201564299889   14.00186970056438
H        -1.42495381642902   -2.83508960461586   13.06865764471044
C         0.24555321714875   -3.13335213869062   14.24796769830652
C        -1.14367176763261    0.67400210644919   11.96994697093335
H        -1.73853751521742    1.28539647782816   11.28381541878761
H        -1.82279241029035    0.29599378733849   12.73875626797357
C        -0.02120741885963    1.52616861854003   12.58306630923723
H         0.29784820862105    1.13730713866995   13.55294128287049
H         0.84465951842389    1.54405934350603   11.91157607248457
C        -0.47151836505379    2.88743777752168   12.74296741383380
C        -1.99196611867998   -1.60994148039367   10.47729226735343
H        -2.61208522015268   -1.82250937448861   11.35217393409398
H        -2.55795753954113   -0.92494226876342    9.83778833720861
C        -1.66212569492045   -2.89344212334555    9.69888409519189
H        -0.75068402874337   -2.74994755648530    9.10748977323912
H        -1.51298029939036   -3.74470197969937   10.36726505215871
C        -2.73269117165345   -3.19424409787881    8.77967656566871
C         2.80461423891279   -3.89117390889925    9.29242020044018
H         2.78948302856302   -4.49271705081685   10.19934551618993
H         3.78823098449545   -4.00571216162423    8.84190985093078
H         2.05433681670228   -4.25871653869889    8.59756645762278
C         2.55526344900228   -2.44891898316611    9.62994757293115
C         3.44026193999035   -1.80075604173670   10.49083319417839
H         4.28161645242911   -2.35003141865263   10.87661126993314
C         3.25152836366343   -0.48416814432455   10.90879437992590
C         4.21762833237376    0.10635151766651   11.89556167707310
H         5.21104495625475    0.16450372270344   11.45461829862021
H         4.28766988086852   -0.52677633640895   12.77734249622572
H         3.90878059012177    1.10778087936120   12.18276071070321
P         2.35272334147134    0.48623164578261    7.53537992723035
O         0.37055004909595    1.68079512901424    9.40450632685574
O        -0.40772666079810   -0.50073315754484    7.99289571135827
N         0.98099516635583    3.58272409934201    3.64030748463092
N         2.72890302832489   -4.19381394656877    5.69542637967622
N         5.49031481728054    3.12546764624925   10.47103289855080
C         1.56475762615780    1.60008006821914    6.29112686336938
H         1.21079618553537    2.48359929721894    6.83124525860990
H         0.67993675411223    1.08106963269909    5.90998655495287
C         2.44403219181781    2.04034662997326    5.11409437866387
H         2.77685228087899    1.19073499889228    4.51301242883310
H         3.32085537877243    2.60120526570033    5.44662327941943
C         1.64936480843904    2.90583133169770    4.27019334633682
C         3.03049815522294   -0.90829824439465    6.54145654767805
H         3.62502250927685   -1.52205927841683    7.22575817667325
H         3.70912240423321   -0.53116652917602    5.77181315443046
C         1.90457173931155   -1.75673651212648    5.92951327121007
H         1.58515067556368   -1.36630174688843    4.96039364118933
H         1.03967602140140   -1.77257010625951    6.60228578973051
C         2.35052818471066   -3.11923318134497    5.76794905332584
C         3.88821688159869    1.37116867586658    8.03610342686600
H         4.50795769848001    1.58256683012727    7.16069723940114
H         4.45269217282394    0.68366010685977    8.67427948731489
C         3.56324273746847    2.65495740133993    8.81605691601382
H         2.65262155492442    2.51337119756079    9.40918362598351
H         3.41492812534793    3.50703479501329    8.14853765890904
C         4.63654817603454    2.95234931693092    9.73316885311170
C        -0.90731441683901    3.66134372761301    9.22106321283121
H        -0.90433468320058    4.26031044882111    8.31237307346077
H        -1.88538251159591    3.77572326472694    9.68369086576554
H        -0.14938507652316    4.03164269651682    9.90607778191594
C        -0.66039130119843    2.21831270854307    8.88526970027059
C        -1.54678489136439    1.57020696731360    8.02570687667679
H        -2.38785181034867    2.12000722248178    7.64005446801885
C        -1.35983480607781    0.25302898283932    7.60888002265976
C        -2.32755727553994   -0.33715513008120    6.62345230624950
H        -3.32261213669066   -0.38467561484099    7.06181024162339
H        -2.39036655971325    0.29062830645684    5.73724080183180
H        -2.02514183872144   -1.34256324769154    6.34340932249633

