51
CSD_code = EBASEH | q = 1 | S = 0 | Stoichiometry = C23H19N6NiOS(1+) | MND = 6
Ni        6.09335206179042    1.55857098528019    9.38172099993091
S         5.45716133448726    1.46614004424777   11.57965330926469
O         6.63246612206157    1.63514904211832    7.59310829390354
N         5.89974243114696    3.86067496711779    9.39484049688531
N         7.86367163215013    2.08626636499760    9.89104622013968
N         7.14204439819939   -0.48961818330609    9.58977367387346
C         8.12243388227915    3.37943554332702   10.11290149833571
N         4.34275789049007    1.04754678566691    8.93100510994882
C         4.56648436871865    1.04178884586042    6.52968590920431
C         4.96766699743835    4.67233936172352    8.92208371529237
H         3.98962526317938    4.23538610887685    8.76329705778913
C         3.85849327115850    0.87794843457774    7.73664854450548
H         2.81083534321944    0.58111105067679    7.64869465677257
C         8.75996917822331    1.14759167049948   10.21344645348092
C         8.43754694488013   -0.23912918949745    9.82421441357615
C         5.19622784122778    6.01060749506646    8.63832532179144
H         4.40299255487451    6.63253873631192    8.25631220486906
C         5.94792508796882    1.41946555555866    6.53609357088994
C         7.12769375889907    4.34990369222004    9.61580271726085
N         3.48410051980138    0.83324111111270    9.98180841450215
H         2.52911197713784    0.55008695908697    9.75963945821361
C         9.28619411746084    3.77408620090636   10.77067517537538
H         9.46750054801002    4.81432355062919   10.98386458878548
C         6.58465680961926    1.55709227230817    5.27327512476958
H         7.62581175230198    1.83982185770087    5.27718823020762
C         3.88335603241379    0.99447736598253   11.25256795415118
N         3.00697246053958    0.77067628572942   12.24360384040479
H         2.05347890394801    0.49649822988129   12.07910736346545
H         3.31488352355182    0.89824330820392   13.19193430092550
C         6.78800900004128   -1.70768551082930    9.21310535214917
H         5.73069084449569   -1.86585430945505    9.04060879025623
C         7.44905055869582    5.67877336062739    9.34924107382863
H         8.45029495443733    6.04798435511544    9.49936812459100
C        10.19180062035089    2.80921435994411   11.17413742335343
H        11.08709616079966    3.08901136850678   11.70735212916290
C         5.90886639494505    1.34142551757174    4.10583552791873
H         6.42331709033349    1.45551452382226    3.16344749721446
C         9.94101730560715    1.48228455717867   10.87369232812180
H        10.63872207800644    0.71613008135264   11.16798034402789
C         9.41602925451273   -1.21799527635321    9.66730839518143
H        10.45771406655604   -0.99112255765156    9.82463865408846
C         3.90309738637929    0.82819751963858    5.30077002131022
H         2.86038965048267    0.54511701283610    5.32034149951333
C         6.46625802874706    6.51964002771358    8.85400756630979
H         6.69097153243253    7.55268749204250    8.63709612245875
C         7.69279101882587   -2.74521387897511    9.04373853015356
H         7.35475515931754   -3.72214833783617    8.73831318792023
C         9.03481052278618   -2.48948710488121    9.27210496986570
H         9.77440683731554   -3.26444971530244    9.14104646406358
C         4.55472588021607    0.97402944799029    4.11018912444854
H         4.03942864754224    0.80948261407762    3.17775825554558

