52
CSD_code = EBAVEL | q = 0 | S = 0 | Stoichiometry = C26H23AuClP | MND = 2
Au        2.67942407378192    2.56838857172002    6.05639478314677
Cl        2.56268654898653    0.62113373220056    7.19592326766563
P         2.67146456314345    4.52031385735125    4.92769656919425
C         1.70608174139413    5.83568981559060    5.49579202955954
C         1.41001954593337    6.96430504396054    4.73984316298549
C         1.88767208839570    7.11819958158711    3.42934114887571
C         2.63871025365043    6.15315066464498    2.76464910010424
H         2.94502344683058    6.38766863862622    1.75251299558305
C         3.05527003392640    4.93801912206430    3.28864867389915
C         1.18527437528906    5.62008807980375    6.86608673417207
C         1.71308067515326    6.27960678585224    7.97645316184001
C         1.18633912713581    6.00843928841957    9.24296425493111
C         0.16245350863345    5.08105856802884    9.37613196308584
H        -0.23649246397616    4.87147139068060   10.35780532529001
C        -0.34237034857655    4.41171195122370    8.27638444876965
H        -1.12634759976353    3.68007577572597    8.39497295948806
C         0.17371365300148    4.67644373246820    7.02359171178546
H        -0.21194866256115    4.16871056885664    6.14953832214047
C         2.85276054023096    7.24232942734116    7.83075154980052
H         2.54625038413910    8.24982640757808    8.11288759377917
H         3.22324325438639    7.26240290528489    6.80838740732011
H         3.67359161156619    6.95397121198573    8.48631359798406
C         1.73072152388414    6.70296916729182   10.45312205804337
H         1.17338284382278    6.41809760446854   11.34137625652228
H         1.67358150326052    7.78477321555794   10.33842258151247
H         2.77717687230721    6.44045659970144   10.60617435109434
C         0.50990026478094    8.00377586137875    5.34143649341097
H        -0.18404056919332    7.53977063951279    6.03884472044014
H        -0.05058129256085    8.52497773532224    4.56934400001443
H         1.09050099781328    8.74063919877113    5.89497286307427
C         1.59128745532263    8.35093560428477    2.66670614739935
C         0.91247309801579    8.27336940740668    1.45452817780922
H         0.57049897842031    7.31173281897683    1.09914884364921
C         0.65718297452494    9.41694857203423    0.71975159672254
H         0.12143012708096    9.34556976828707   -0.21522481530616
C         1.09002803887183   10.64939235890135    1.17927023044604
H         0.89475520934993   11.54137168081850    0.60313028888136
C         1.77824232989070   10.73360355778024    2.37813414662180
H         2.12499835965964   11.69157323231453    2.73644042892983
C         2.02500157132756    9.59301226796136    3.11985784698765
H         2.57443284687753    9.65929428544124    4.04729583273057
C         3.84235156926550    3.98088665155260    2.50540881352169
C         3.60107435481160    3.78475104395020    1.14695373144264
H         2.81452258579702    4.33900105105703    0.65622752905580
C         4.34255096822694    2.86173148947025    0.43334876479111
H         4.14260347149462    2.71306697239946   -0.61747269077956
C         5.33219317415087    2.12360813268882    1.06154364506382
H         5.90709587134380    1.40199298815505    0.50109178574360
C         5.57976836781123    2.31127761426373    2.41169898901167
H         6.34852435059733    1.73852151568487    2.90778526563143
C         4.83932420928090    3.23174698816457    3.12732646216901
H         5.04251759308075    3.39494685539948    4.17918489398537

