36
CSD_code = EBAXIR | q = 0 | S = 0 | Stoichiometry = C17H14Cl2N2Zn | MND = 4
Zn        5.63737166335469    4.76143338365057    3.41433293316446
Cl        3.64043799309003    3.88267981471148    3.03145070018397
Cl        7.56472807876647    3.85143344972811    3.92839201372075
N         5.73891673907288    6.23871696797703    1.89550054186211
N         5.28313788937163    6.55357543197632    4.54578894568437
C         5.32483735524855    7.41067102202453    2.34034624997127
C         5.06852879932133    8.49204414092762    1.46834017470528
H         4.73227618028318    9.43330677368407    1.87505816447677
C         5.24379831402894    8.31967751429197    0.12347811180183
H         5.05151622423505    9.12472783207788   -0.57115309601600
C         5.67816468109121    7.07181050739181   -0.36797187936483
C         5.87616287958615    6.80289734333546   -1.73615951415836
H         5.68913544891273    7.58949057782993   -2.45245678459022
C         6.29333067863035    5.56541024649880   -2.14311899270069
H         6.44054403240334    5.36128175264723   -3.19295495380702
C         6.53398771116095    4.54618853124955   -1.20473481470585
H         6.86219495655369    3.57801080026141   -1.55048181712628
C         6.35505328686435    4.77154964010552    0.13121104857349
H         6.53498450553491    4.00095851612846    0.86837918721651
C         5.92021025119193    6.03498435418609    0.58116671651115
C         5.12831976119509    7.55393916212787    3.76892823046788
H         4.81815021157021    8.53716993757611    4.12561696347221
C         5.14629886726153    6.60141634944356    5.91747960061447
C         4.86163044090983    5.40023914548968    6.57484436972448
H         4.73163905682458    4.50233971723390    5.98526498615042
C         4.72380778621571    5.37093431027540    7.94420087326767
H         4.49292093591506    4.43892217799835    8.43803460291832
C         4.89136770872562    6.52621484618664    8.70581035867370
C         5.20112159784638    7.71469176310780    8.05070943994156
H         5.35575286800687    8.61478513534399    8.62821845734343
C         5.32246691782285    7.76310548109878    6.67785707966576
H         5.59844869941192    8.69099875664505    6.19909361809739
C         4.77352255199634    6.47242920120834   10.19454143533965
H         4.69475848066054    7.46958131334465   10.61973478773354
H         5.65364445738807    5.98744912141794   10.61724867508163
H         3.90303198954819    5.88983498081804   10.48900358610463

