62
CSD_code = EBAXUB | q = 0 | S = 0 | Stoichiometry = C25H32Cl2NPTi | MND = 8
Ti        2.02124953801576   11.35021664335255    3.19647652010038
Cl        2.37482137568053   12.37294692205446    5.11313941298196
Cl        3.19399627025020   12.72457956587836    1.94779851674233
P         4.27523962876743    8.95989756548920    3.37185209192980
N         3.09761051343778    9.98248357356413    3.30640223821170
C        -0.12933698284318   12.28628176608475    3.00806139745470
H        -0.38954317094919   13.30892261836414    3.24986378541474
C         0.23844962599427   11.80586692585483    1.74002121951428
H         0.29993183519812   12.38896743519373    0.82879070501885
C         0.40540811514619   10.40507360294267    1.83149153041399
H         0.56182042534767    9.73336827148554    0.99513025528290
C         0.12199131756582   10.02090367523244    3.16535678890163
H         0.04241471009585    9.00413251435871    3.53442245792279
C        -0.20477809425770   11.18853236534151    3.88878148443216
H        -0.54646653594876   11.22069444171616    4.91672420018198
C         5.59616937879545   10.84363823507244    4.82661991438845
H         6.48476861888521   11.42337838543465    5.07225756172259
H         5.27062199464372   10.31847776651906    5.72465753844297
H         4.80526310612498   11.53268748055264    4.51738918092799
C         6.27148749224500   10.65910085690432    2.44474834367223
H         7.06046174022730   11.37266872378748    2.68010316408189
H         5.40154403742146   11.21782642392919    2.09432246473416
H         6.63399620569851   10.01044993017854    1.65059143880956
C         7.03629533442458    8.93568867367793    4.11452806304381
H         7.95598973586047    9.50879987792439    4.22895591866559
H         7.20866368343543    8.15453830994956    3.37904463546691
H         6.80164854913383    8.47779071736851    5.07282789497013
C         5.90804323747035    9.86630550451943    3.69537860498301
C         5.42815120563319    7.15850876706176    1.38790336660063
H         5.23100052686678    6.60813557416819    0.46797487569929
H         5.64806001642187    6.44006550524029    2.16904854348580
H         6.30739528955969    7.77651830050897    1.22280069497021
C         3.97601162296151    9.03555811186984    0.61528259645334
H         3.55627886272650    8.53365980124549   -0.25574432639968
H         4.89851199014056    9.51998619410653    0.30914411595454
H         3.27392572457871    9.80876067901679    0.94853593708225
C         2.95329296085968    7.16075082251652    1.87907273812189
H         2.73677210727179    6.62631962705938    0.95495674890210
H         2.10956854478575    7.81084384073965    2.11907736246440
H         3.06810718261004    6.43445423080467    2.67803507725067
C         4.21397385785679    8.01123557906051    1.72768918934753
C         3.99012508378721    7.88640811822017    4.87090908786844
C         3.18254943720417    8.58448259710650    5.77531603951049
H         2.79443347922125    9.55586424455878    5.47452822333392
C         2.85402774879756    8.07827945511920    7.01697299113065
H         2.23208289714683    8.65469082571939    7.68479258322723
C         3.33161232187773    6.83449253813364    7.39164885492358
H         3.09450917551723    6.41910290752261    8.35954917894388
C         4.10749301151810    6.11900225078007    6.50233494970637
H         4.46927010492034    5.13700357791780    6.77445208494928
C         4.44906380608381    6.61733625497402    5.24352694912020
C         5.23332369337409    5.65846344365117    4.42514295512719
C         4.56039714114334    4.65459032337536    3.73148880693335
H         3.48041870638723    4.61953609235658    3.75832892959245
C         5.26063450940494    3.69148275077289    3.02783377918452
H         4.72299874983816    2.92763731985168    2.48607872009151
C         6.64536577660106    3.69814357431820    3.03060555288872
H         7.19310581851882    2.94802314586206    2.48039682729227
C         7.32248330829005    4.65343720312387    3.76848121967840
H         8.40166567211497    4.64257342098251    3.80774078263339
C         6.62237533452718    5.61861824660943    4.47208883363719
H         7.15955264558859    6.33291590291101    5.07516840186640

