36
CSD_code = EBAXEN | q = 0 | S = 0 | Stoichiometry = C17H14Cl2HgN2 | MND = 4
Hg        1.40318051718704    7.80689741916966    7.42918542376862
Cl       -0.86558779382741    7.79819029796935    7.71951251733728
Cl        3.37883392845803    6.75585024366596    7.85912422656929
N         1.90690792391124   10.23142557976814    7.63933274669222
N         1.82430798967392    8.88752184606309    5.22058543745938
C         2.07676426927672   10.88615790410708    6.50454807691622
C         2.27394607814049   12.28583638728393    6.46795602817019
H         2.40722740831688   12.77710270414646    5.51623966839563
C         2.28819892923406   12.99165950440838    7.63782764111726
H         2.43400435999977   14.06241540266450    7.64297353115928
C         2.11006319021734   12.31150344551714    8.85922036601872
C         2.11140711500679   12.95752414404503   10.11105489189086
H         2.25483648100233   14.02780311181115   10.14209406506076
C         1.93312196258887   12.23885770555195   11.26053802656492
H         1.93329061953711   12.73676916006608   12.21838300383991
C         1.74772113849673   10.84592467711571   11.20996833978709
H         1.60958393289452   10.29824834023588   12.12971096853813
C         1.74150312530287   10.18805677663388   10.01287997319326
H         1.60084756378824    9.11234961601337    9.95900612818970
C         1.91956898938257   10.89922024835546    8.80673591871029
C         2.06233694684925   10.13951470830348    5.25657388171773
H         2.24763911946977   10.72318899209721    4.35112866367516
C         1.85029930550642    8.14664062697715    4.05113954973150
C         2.66752597221857    8.45349847550424    2.95919266931992
H         3.34120484500991    9.29632118361815    3.00687590008036
C         2.66337773072107    7.64260276021763    1.84244534255200
H         3.31386290877005    7.88065639779120    1.01313147537181
C         1.84334842510967    6.52161871979414    1.76877131931065
C         1.03507845801907    6.21616806747236    2.86275097525603
H         0.40045064394562    5.34315642133060    2.82574699474913
C         1.04655486601943    7.00328905347469    3.99214057355517
H         0.41261771001390    6.76460925958339    4.84014005456310
C         1.84529660215965    5.63792540535758    0.56305565361863
H         2.34980830277574    6.11482360680950   -0.27311298166118
H         2.36119605899964    4.70456980339358    0.78858923749472
H         0.82747437588774    5.38940200356603    0.26905371121755

