42
CSD_code = EBAYIS | q = 0 | S = 0 | Stoichiometry = C18H19AuClN3 | MND = 2
Au        2.85137397506878   -1.67013375845599    7.31313548016625
Cl        2.83724051318751   -3.55403254221066    6.09098905307044
N         4.02469331143524    0.48194897541351    8.95631899604983
C         2.89465615418183   -0.01747863964744    8.40915293715721
N         2.57022368387283    1.84919992301709    9.54608819490181
C         1.92653747412612    0.90701533651856    8.80868170176777
N         3.84833269264819    1.58820208181421    9.63806704742212
C         0.50143742685359    0.90780023151416    8.51587414314295
C         5.31388145353785   -0.09124843820421    8.81165985815175
C         7.81698541353250   -1.22001771034613    8.45046063591573
C        -0.17050925390186    2.07493072864128    8.15632743400319
H         0.36608054952830    3.00821360098849    8.06949191890221
C        -1.52060568619994    2.03720690442497    7.86047881639495
H        -2.03016586888845    2.94613022153425    7.57663060967657
C        -0.20114072830437   -0.29609757312054    8.55948409831442
H         0.32061009749598   -1.20267180570956    8.82419198061467
C        -1.55009877860165   -0.32547401860540    8.26356190379321
H        -2.08331382749575   -1.26303095779534    8.29869951978477
C         6.14019835116905    0.39534713839464    7.79836150550723
C         2.03484549093719    2.98407337747324   10.24108140638951
H         2.65319961499914    3.16782152368917   11.11863084123510
H         1.00745292295041    2.77976157390777   10.53867227999169
H         2.05916240956915    3.87187445094593    9.60658984447521
C        -2.21436028483817    0.84034589281258    7.91804817019246
H        -3.26800109947652    0.81523507118315    7.68469096182656
C         5.66263065269243    1.49613178362275    6.90239592458167
H         5.41380336805094    2.38441307411696    7.48311558670814
H         4.76886685547535    1.17883204310394    6.36347407531146
H         6.42751027348294    1.75828679689687    6.17728950522698
C         6.96982543154866   -1.67928389810320    9.44810372438716
H         7.28955737632282   -2.49163037246380   10.08418897407435
C         7.38837122132234   -0.18125706062897    7.63522088260734
H         8.03437144438131    0.18058652696617    6.84891256267421
C         9.16862062519846   -1.83698820974406    8.26845669436682
H         9.82105738016920   -1.56088492795953    9.09673618574899
H         9.62834146951443   -1.50420253605902    7.34194804257283
H         9.09132405139965   -2.92207999415127    8.25271382538642
C         4.83166007089351   -1.66557262789539   10.73600653465052
H         5.25444603084738   -1.42106255766799   11.71027847580239
H         4.76741888962027   -2.74895126459952   10.65932218345462
H         3.82454900422712   -1.26110812962349   10.68443361932577
C         5.71072984745199   -1.13135023392725    9.64713386429043

