60
CSD_code = EBAYEM | q = 0 | S = 0 | Stoichiometry = C25H32NPTi | MND = 8
Ti       -0.51590814751300    3.49237021339039   10.56645950584511
P         1.35770942826337    1.71711547756337    8.80562962024494
N         0.84187313694398    2.35383550972426   10.10930111805806
C        -1.11614353667924    1.78283183206366   12.02041430791707
H        -0.98343795167188    0.72019203516515   11.85898708905948
C        -2.28467084985788    2.52390375238713   11.72441044835281
H        -3.20095151179462    2.11945120215179   11.30663564411744
C        -2.12829864036251    3.80365906778574   12.28954208907170
H        -2.89854950531520    4.55968573867538   12.35507545548694
C        -0.84668067374423    3.88651469854254   12.85567009494029
H        -0.45614984837740    4.71888949338410   13.42851489226777
C        -0.22230383054689    2.62893013905855   12.70515272808039
H         0.73053935347225    2.33322951922102   13.13057337320185
C        -1.27766016415789    5.89425874080821   10.46843086831792
H        -1.60573549745687    6.70563848780322   11.11046856689793
C        -2.17648805504923    5.18754992307718    9.72548289779607
H        -3.23460413379906    5.43132407051906    9.75485831816551
C        -1.72998668329762    4.09552122889611    8.89914045300771
H        -2.44786868933754    3.60508673363461    8.24186755606044
C        -0.36380163449560    4.22936003436748    8.43653599406638
C         0.53656148458570    4.97520695392274    9.17497922702309
H         1.56273956839154    5.07437504122724    8.82806187614193
C         0.12675409131604    5.58549058800175   10.39737767249066
H         0.83187924207819    6.21433177359654   10.93667931076464
C         0.08741001455674    3.60235294321356    7.18387955974609
C        -0.40146136415734    4.08941651159487    5.97310675038466
H        -1.15727023619848    4.86321958822031    5.98586248691474
C         0.09001898629426    3.61400739588831    4.77328831196787
H        -0.28818131147603    4.00384854196074    3.83968519510423
C         1.08365757844305    2.64714815859756    4.77399964415810
H         1.49104276328335    2.28807070759713    3.83989067041533
C         1.54118135411039    2.12619585981723    5.97053735102364
H         2.29903343524683    1.35958106172342    5.95148030642540
C         1.05100175108441    2.58443021380525    7.19001464834315
C         0.41996122910575    0.08545870139408    8.47354254237442
C        -1.04730440967988    0.52018114151037    8.46634366221439
H        -1.70235943139791   -0.35073488375501    8.48636667880313
H        -1.26757511195938    1.09321817514034    7.56409136463304
H        -1.25646679589597    1.15003749356455    9.34121857792432
C         0.69517932576024   -0.79437558182581    9.68985988113938
H        -0.06518089961161   -1.56921534445528    9.78612039758453
H         0.68738979245352   -0.17604738692537   10.58839189885238
H         1.66450415429367   -1.28263318773674    9.60769041416385
C         0.71188588492073   -0.67496942088578    7.18516596650232
H         0.11510589097029   -1.58793963161718    7.17707723111658
H         1.75648984790796   -0.95872312963920    7.10286327941703
H         0.43662891551994   -0.08918417216052    6.31135940349386
C         3.24114130648282    1.47692086821679    8.95545173009370
C         3.49688533358848    1.18717200256631   10.43348879625001
H         4.55062334579164    1.33156979284021   10.66905939557191
H         3.22594042378545    0.16525887326676   10.68724153870416
H         2.89866512818976    1.86478814204141   11.04482382400544
C         3.80537743555083    2.85844375333816    8.62268483497428
H         4.87690838978658    2.89199665729080    8.81893985402944
H         3.31588438041200    3.60355402436223    9.25167950651435
H         3.63852267535900    3.11473571104613    7.57702633850082
C         3.92011488611364    0.40775419506439    8.10870252691891
H         4.98826883689182    0.41239677367262    8.33074784829854
H         3.80648689450745    0.59008268051598    7.04392524423462
H         3.53867264837247   -0.58306948421659    8.34274323182632

