48
CSD_code = EBAYEO | q = 0 | S = 0 | Stoichiometry = C21H20N2O4Zn | MND = 5
Zn        2.25254169571699    0.76330768287775    6.73701800755271
O         1.48780391121639    2.55259341786038    7.49110404760809
O         3.60493531424300    2.23648297221115    7.10002296083476
O         2.32217639918485    0.88093931746905    4.70865387037711
O         3.15911833320963   -0.82504415460436    5.77120182302193
N         2.26829282181323   -0.34692972114988    8.57607718138249
N         0.30860706950221   -0.09952420787404    6.71987772111603
C         1.12681953984348   -0.98190110754112    8.75321656464506
C         0.87871081832776   -1.79248336264702    9.88401287732834
H        -0.07791649468087   -2.28198845289862    9.98573253157385
C         1.85719001971768   -1.94000853306028   10.82536592134918
H         1.70205758218015   -2.54931593289930   11.70458551679483
C         3.09584267468391   -1.29436694364907   10.63915412927568
C         4.16601797276147   -1.41810416893642   11.54634237816882
H         4.02976880236846   -2.02571359309580   12.42944869965391
C         5.35332004759936   -0.78410571305118   11.30519653376645
H         6.17339864955187   -0.88426825549683   12.00064606575073
C         5.51820842588493   -0.00084983512957   10.14996464806420
H         6.46613522170155    0.48536462968020    9.97554197990214
C         4.49913941066256    0.14864538394870    9.25085570834882
H         4.60955988686178    0.74646644987107    8.36063051373376
C         3.26082942611646   -0.49062630609789    9.47023521429783
C         0.10698409130011   -0.83917060292247    7.73290299476381
H        -0.82914744876327   -1.38186890869298    7.88894207617335
C        -0.59596288997151    0.04257089037852    5.68838220237050
C        -1.38266065191258   -1.01452134986041    5.22478520008286
H        -1.28130486104846   -1.99590827369747    5.66596400353520
C        -2.23597522601868   -0.82343504690084    4.15594133768191
H        -2.82289031113245   -1.65424707231988    3.79052341966872
C        -2.34477732666756    0.41767433080347    3.53976737635182
C        -1.55718424825580    1.46721200997287    4.01076437865722
H        -1.62720305582587    2.43366739171069    3.53347460471872
C        -0.68213392891881    1.28681224127762    5.05852231559155
H        -0.06431407161778    2.09039227431467    5.42541306190100
C        -3.27388577537856    0.63283873336603    2.38623812013569
H        -2.72349572993007    0.99875048595999    1.52069937357550
H        -3.78203419639644   -0.28841840848270    2.11318410698436
H        -4.02316968807514    1.38162789664986    2.64111442524452
C         2.65764772434645    2.98285528426280    7.43782022031843
C         2.94775340969897    4.42631982060952    7.78882231039839
H         2.12309671336772    4.84343823186907    8.35815365773723
H         3.87577174516085    4.48991170305107    8.34945372808516
H         3.06498674868185    4.98523164883101    6.86316918975172
C         2.92907086767249   -0.21150490825316    4.70617912114469
C         3.38923525050781   -0.80033480148175    3.38978957331002
H         2.74349490558809   -0.45689957361272    2.58693040121020
H         4.40366429830840   -0.45592178942179    3.19950141827093
H         3.39287612680437   -1.88484177319571    3.44987648776630

