73
CSD_code = EBAZIT | q = 0 | S = 0 | Stoichiometry = C32H35Cl2NP2Pt | MND = 4
Pt        9.52145732266685    4.66684708538075    3.02013249130899
Cl       11.73838697008846    4.10333064207617    3.30827842548509
Cl        9.00305280828147    4.49462405796424    5.25834607293719
P        10.16742321624776    4.64864366779143    0.86024848065200
P         7.31791554084953    5.05363918989944    2.71051612406828
N         7.56773024637642    4.34411023392280    0.08778318740199
C         8.79995702478814    4.94872374936188   -0.37929424755405
H         8.70175139802034    6.03729178055979   -0.52413564795221
H         9.10118566350390    4.50668220699481   -1.33323613924754
C         6.79231769597833    5.23062042848740    0.92843057689853
H         5.73601977415575    4.96311282597402    0.87037153450769
H         6.90022470251768    6.28821161126721    0.63486913885402
C         6.80857429295621    3.63515045988206   -0.94232873668902
H         7.54708352549696    3.07804597947243   -1.53173773650313
C         6.03751973970625    4.54859621903785   -1.90593495652340
H         5.26499871050350    5.09807700604372   -1.36410135815282
H         6.72069653266904    5.27798053777621   -2.34834337132528
C         5.38364361527397    3.71388485580505   -3.00414086964618
H         4.82254856803628    4.36517946341315   -3.67731007071177
H         6.15920515467660    3.21638123402498   -3.59130394602738
C         4.45481451833975    2.66411534090137   -2.40101622542703
H         4.01396313459940    2.06030898136099   -3.19616960234254
H         3.64056991045980    3.16261143694860   -1.87002414904189
C         5.21758866831126    1.76778090502105   -1.42955033538486
H         5.99230494609649    1.22138919825075   -1.97222575189993
H         4.53987732388541    1.03581505278821   -0.98681110728665
C         5.86064564791142    2.60344619103058   -0.32602694481451
H         5.07315009677145    3.09510288354063    0.24789834920861
H         6.41580995981497    1.96572679459403    0.36375754737938
C        10.86640736690458    3.07381321559353    0.30748206960449
C         6.45947920543908    3.53012671093179    3.18764032178319
C        10.00137827503373    2.01239807685721    0.05526535389271
H         8.93570556097533    2.16542139706441    0.14986964311912
C         7.18137126101910    2.35388015642466    2.99870580212285
H         8.20274941412832    2.41619273948807    2.62643945233728
C        10.50842606887824    0.77566674803290   -0.29736512672402
H         9.83569656249531   -0.04714775224725   -0.49281334437441
C         6.61636660058470    1.13302892920875    3.31173502003246
H         7.18047623686972    0.22298251007976    3.16941435928838
C        11.87864390283736    0.58864722304887   -0.38709549481892
H        12.27441069364770   -0.37932349653393   -0.65727061930120
C         5.32999410625456    1.08086025691908    3.82626265151604
H         4.88878053916802    0.12848373866907    4.08070086662961
C        12.74124700992170    1.63776574011655   -0.11354704527820
H        13.80924390553236    1.48603384234129   -0.16518447393193
C         4.61811964297007    2.25000378105798    4.03558915958835
H         3.62427451209914    2.20833041988748    4.45707244621552
C        12.24152383755635    2.87822920652723    0.23942582228933
H        12.91042855431985    3.69094837560949    0.48123203612180
C         5.17768886921638    3.47624147126433    3.71847048444326
H         4.62725489967608    4.38674353496043    3.90672634583666
C        11.35532641176922    5.92886593834095    0.39174721802934
C         6.45962391207673    6.45300199479041    3.48459235895674
C        11.96749480930822    5.94656827977996   -0.85774849728438
H        11.76805099624206    5.15426036605407   -1.56696372454159
C         5.15959452850534    6.81486946442958    3.13691189822093
H         4.61319400660909    6.25256208514529    2.39272381287453
C        12.84176869222683    6.96920730009273   -1.17679607301273
H        13.32633836280828    6.98116643129241   -2.14232082906428
C         4.55943223054305    7.90224842687741    3.74531321471361
H         3.54848877628903    8.17530445920471    3.47866630657373
C        13.10115553078122    7.97535063189164   -0.25870789217929
H        13.79057160981710    8.76731788970181   -0.51164031714527
C         5.24987936249630    8.64096142680157    4.69302792461993
H         4.77379344324031    9.48701885708074    5.16625510320497
C        12.48303554830659    7.96530980069144    0.98134877749228
H        12.68851424207930    8.74922171720796    1.69482407354176
C         6.54863083112858    8.29586719495657    5.02792140774713
H         7.09029679393736    8.87363692190533    5.76161042495810
C        11.60822244979614    6.94467877544461    1.30591078786065
H        11.12461955986298    6.90604993660974    2.27776567885213
C         7.15363907400446    7.20845380337990    4.42389604825746
H         8.16344509399019    6.92002145349829    4.68446583388601

