69
CSD_code = EBAZAL | q = 1 | S = 0 | Stoichiometry = C32H26CoN8S2(1+) | MND = 6
H         7.99717608349895   13.30525032885167   15.35876986430365
H         8.91502791282349    6.76866884290412   15.51456612200024
H         4.29704346037796   12.69826284997602   16.65051950587506
H         6.39693469286079    6.46904667005377   12.45548242234569
H         3.73539522497323   12.40899335075465   19.02697920983671
H         7.08502271523331    6.77702778131364   10.11490432387114
H         7.36284458884309   10.24649005403886   19.62705344540444
H         9.79532606250740    9.84640648793061   11.30967279224545
H         7.93749063063762   10.55026042140128   17.25463146723759
H         9.12197128152765    9.52982184227872   13.65435421304010
H         4.66216850105640    8.66588980031580   10.71830098670649
H         2.56598997065166    9.98354798567032   17.39464584809504
H         3.07314132088316    6.57290694583356   10.78882039758751
H         0.74555160448693   11.56740307105442   16.35082321563479
H         1.72060931220055    5.00126737014690   12.17447654225751
H        -0.06084007167785   12.81687470716724   14.34886754478280
H         1.63346098549892    5.37201013269262   14.64336466977704
H         1.24815827278921   12.63148932779285   12.22923246376353
H         2.85244051872981    7.26624247116768   15.61654953247984
H         3.25370540414454   11.21882371967558   12.17663484884505
H         8.46325868890123    7.79708333601298    8.47238673397862
H         9.96697424631247    8.54359671766682    9.02773684564952
H         8.53750299652410    9.53569710921920    8.77964294642689
H         4.30637974055680   11.69686344701612   21.22452734175672
H         6.00308521961310   11.33404425072337   21.56788705832513
H         4.90690371299440   10.03963193421766   21.10680197453873
C         6.31057688110470   11.19293124779626   13.19995024360021
C         5.86291423837223    8.18262501551646   16.32225280556062
C         7.39324615407546   12.59161174237624   14.83798235535474
C         7.96401944544252    7.25324349520278   15.59200490169650
C         6.46813331419852   11.75085526148461   15.36465024993946
C         7.25891597832278    7.85306019459923   14.60044543998627
C         6.14207675602927   11.62260889889430   16.79474531776654
C         7.69750103690253    7.99626792890190   13.20231813229915
C         4.96299046371911   12.15116175602425   17.30327017981271
C         7.13416643850787    7.21750357159300   12.20013831526374
C         4.65195046951373   11.98761815069527   18.64048131650922
C         7.52551948826114    7.39260254727755   10.88564919494709
C         5.50119592705693   11.29298340457660   19.49227947011575
C         8.47656701273066    8.34533132629324   10.54384480232426
C         6.68748957775286   10.78105462430915   18.97610858875135
C         9.04735190500633    9.10842737327885   11.55771025232572
C         7.01153218132824   10.94789334278463   17.64496785573892
C         8.67020932438817    8.93441724378035   12.87381423338985
C         4.50081808280678    8.67835318243134   11.78585869582792
C         2.98978796047897   10.00947545150491   16.40187219996683
C         3.67669388249876    7.74725236254991   12.47467286333254
C         2.42606855725244   10.73493030246651   15.31721513057960
C         2.99456802177473    6.69054457828894   11.85728545239897
C         1.26691451708222   11.51662323054925   15.40889466439109
C         2.24963399478358    5.82539718591652   12.62640710627987
C         0.82604143879846   12.20493573086224   14.30127001016689
C         2.19656157226370    6.02972663854603   14.00285384595360
C         1.55126374244370   12.10229865866323   13.11693218367165
C         2.88358158569042    7.09672189819042   14.54931152348897
C         2.68036862112361   11.30641904197855   13.08894520259851
C         5.15599440094244   11.08601690740825   20.93189113322006
C         8.88305872119063    8.56055749745846    9.12155462887866
N         5.84666265345817   10.96656407723791   14.43328939126357
N         6.06234693313660    8.36934972418267   15.01349435388192
N         5.88453709402134   10.48304486644179   12.15430187802301
N         4.78680984075420    8.67199398699821   16.93981606182072
N         5.08417493504280    9.54338701763503   12.56695977140069
N         4.09876169234508    9.39328897891577   16.10307938403292
N         3.60446033619639    7.94274757327743   13.81770557733996
N         3.11505785962638   10.63160142135204   14.15023211055321
S         7.51199623690675   12.41601068893295   13.11911193498169
S         7.12516771719773    7.32284356737346   17.10556198981481
Co        4.63668993252552    9.47491734958293   14.34793693398572

