34
CSD_code = EBEHIE | q = 0 | S = 0 | Stoichiometry = C12H11I2N7ORu | MND = 6
C         2.02908407015752   18.50097655439451    5.08846837561230
H         2.29968342224678   19.10588201270732    5.95394913707035
H         0.99536726301095   18.16921213615501    5.17712585490246
H         2.14705826001788   19.09993537387058    4.18458903117316
C         4.72804479421643   16.33763995318509    4.92806906922208
H         5.77541987317644   16.12394002552238    4.89064089119583
C         2.52251504876021   16.07243115571682    4.97974545014761
C         3.73317428767512   14.01501524050877    4.85685229937878
C         4.83672393704575   13.17845528640640    4.78348653950146
H         5.83636884687140   13.57844182442598    4.77014326447608
C         4.60623443860691   11.80987253476424    4.72727446810094
H         5.44093766332416   11.13053052965722    4.66907103821837
C         3.31136568648249   11.30760022620055    4.74435240496782
H         3.12140466051392   10.24864008502389    4.69994040450004
C         2.26826313425154   12.21819033660456    4.82030363688072
C         0.19299863149859   10.77494932621520    4.82341911321200
H         0.61370514143627    9.79330052273722    4.76530531382278
C         0.00763854475021   12.98667954965917    4.92880253886631
C        -2.47132776150723   12.97867219450221    5.01371503614994
H        -2.35691864296587   14.04454898671138    5.20693659330369
H        -3.04179964092255   12.51464778633933    5.81784875338838
H        -2.99994194530257   12.83132020637717    4.07077298275985
C        -0.47617640954952   15.94383346964724    5.05955495629304
I         0.93116825971024   14.84519020675929    2.23393474635701
I         1.09548965264291   14.62346795155719    7.70225946102073
N         4.22416851285455   17.52086892829209    4.99148188664024
N         2.88306774485993   17.35128048786899    5.02265406997459
N         3.73197811893548   15.40108079244496    4.91718434175275
N         2.48716003894636   13.53456450875471    4.87510238209659
N         0.90962142859910   11.93904417306709    4.85022839285065
N        -1.06808128274438   11.02864159110202    4.88050168499126
N        -1.17265586332472   12.37513297414021    4.94468387786665
O        -1.36756868980332   16.66634089455172    5.11362070311264
Ru        0.96102877552692   14.77687217413080    4.97228130021150

