59
CSD_code = EBEJIE | q = 0 | S = 0 | Stoichiometry = C29H22N2NiP2S2Se | MND = 4
Se        0.18491971520576    3.38770815742230    1.32461587228277
Ni        0.83802614010517    1.24516608338431    2.13265451067414
S        -1.17463112893438    0.38557596366713    2.02088503013699
S         1.22197971084839   -0.88830969406962    2.50003959967857
P         2.82513778177236    1.84812828459053    2.80886611172833
P         1.85172727392333    4.51219291573084    2.04035015988608
N        -3.68147229755596   -2.49361377818569    2.39627027324904
N         0.13584537140883   -4.46209840486043    3.16870533138871
C         3.38562976962325    3.49558621381885    2.15169236844892
C        -0.48270349499220   -1.14567796325193    2.39927541927652
C        -1.14055368030888   -2.32871369475658    2.58626222572149
C        -2.53848385552315   -2.41777336191032    2.47944185022256
C        -0.44071388543147   -3.50464929692514    2.90335648535135
C         2.44640421762367    2.29404246585341    4.53645086444561
C         3.38592292969975    2.83654529428504    5.40573391076037
C         3.01268186539097    3.16737858203945    6.69493561538879
C         1.71295649143920    2.94809096875597    7.12427979934496
C         0.77770731706446    2.39139933456049    6.26740977316523
C         1.14489169184741    2.06651424069179    4.97538103518798
C         4.36415095756786    0.90913715966206    2.98180046314359
C         5.49064983670226    1.12660899649757    2.19622597527065
C         6.60219888916638    0.31672650148961    2.34882392580934
C         6.59052327263848   -0.71923537010098    3.26787847656585
C         5.46161278986722   -0.95176812530240    4.03799295623668
C         4.35020135698206   -0.14457232865533    3.89434089943027
C         2.23482724892875    5.92492378127441    0.96207054002238
C         3.53414400911935    6.34784185350138    0.70868242926783
C         3.74823302867353    7.44678811985295   -0.10491287591693
C         2.67496318618899    8.12412736573969   -0.65965769574622
C         1.37898419746635    7.70357548694430   -0.40463716933230
C         1.15788581749402    6.60601507935763    0.40548253698036
C         1.63123888900331    5.26683491072053    3.68862099228703
C         0.41518911482390    5.13859984023489    4.34292397609432
C         0.23653297080012    5.72455140711146    5.58293801355352
C         1.26900901358560    6.44120318119780    6.16360896415262
C         2.47821640077231    6.58427652668101    5.50096781605109
C         2.66223279412810    6.00362380605161    4.26079606168086
H         3.75173352397629    3.36405729068593    1.12713284092797
H         4.15086119684121    3.95033426408858    2.78428319382351
H         4.40549171898475    2.98570550043610    5.07700366189498
H         3.73927579563919    3.59239003263217    7.37148440168026
H         1.43166234504905    3.20535463149577    8.13428447290742
H        -0.23091861469645    2.20974210941903    6.60576361275403
H         0.41326072557042    1.62304150596179    4.28031199651519
H         5.50565023414178    1.91976678058892    1.46224700893471
H         7.47788572420698    0.49061647638614    1.74075153436148
H         7.45840881174424   -1.35200616554924    3.37658353447892
H         5.44540871497130   -1.76745024344829    4.74461092299003
H         3.45875976897361   -0.32561595187010    4.47987608397144
H         4.37815091749308    5.82372829756054    1.13392955004778
H         4.75737608953366    7.77298401213244   -0.30796628555834
H         2.84981209087610    8.97886737026460   -1.29515242789510
H         0.54265919156569    8.22863175703251   -0.83985489638010
H         0.15495999638273    6.25180386121244    0.60466591352788
H        -0.38234378850021    4.57632040421401    3.87518012612820
H        -0.70831098986248    5.62213736973692    6.09408587596528
H         1.13130636306427    6.89704511053743    7.13229655226330
H         3.27786012847461    7.15351826962841    5.95075426980781
H         3.59858434829989    6.12957681373751    3.73517553500335

