97
CSD_code = EBEJOK | q = -1 | S = 0 | Stoichiometry = C32H54CoN4P2S4(1-) | MND = 6
Co        1.56938024212481   14.16142968473553   -0.00020743657099
S         3.18264588841439   12.63026462094286    0.59948176831118
S         0.55788219986186   12.95834414847153    1.68445514486867
P         0.78496083029406   12.76699850531681   -1.58044700453477
N         4.38049056218756    9.60192718591791    2.50449463061486
N         0.41778658571296   10.09310770728091    4.12780253953541
C         2.00691757541761   12.03237043734133    1.70197291491093
C         2.20628412976871   10.93549612859493    2.51623674417551
C         3.40467207075071   10.21299727105974    2.50062495964518
C         1.21709046571527   10.48354270346606    3.39691084068521
C        -0.61666045155331   11.68596162130904   -1.07298202776594
C        -1.87164829642239   12.48218280976860   -0.73223093336207
C        -2.92164650712868   11.61207393003400   -0.04772738412111
C        -4.17613027977881   12.40987736240861    0.28429923573433
C         1.95268462474037   11.48124807572578   -2.19168148126436
C         3.19867361611371   12.06947799979953   -2.84268796420349
C         4.18721217447300   10.97984702189123   -3.24729514049983
C         5.44115194150095   11.57093993281557   -3.87874975353371
C         0.16323689505405   13.54120688340187   -3.13798626762569
C        -0.36624844411217   12.60423523074703   -4.21681116060970
C        -0.88108771944374   13.40931487277222   -5.40970978202548
C        -1.42803698752038   12.50461177138325   -6.50741518783031
H        -0.80858314504963   10.96058002190585   -1.86975973873965
H        -0.28265340556237   11.13140489819365   -0.18998773380284
H        -1.60361207224926   13.30363879756378   -0.06264488626652
H        -2.29402659345804   12.92055437075648   -1.63938620021632
H        -3.18168706361560   10.77220333238926   -0.69900971152135
H        -2.49848504996632   11.20333628172903    0.87229425280084
H        -3.92805099905720   13.23941831940212    0.94204261444753
H        -4.62449387867324   12.81491261001133   -0.62113864991396
H        -4.91123098060616   11.78177670921809    0.78314641421008
H         2.24047051428155   10.87689386521621   -1.32515305225249
H         1.41242947407157   10.83343854196560   -2.88942257268841
H         2.92090202323590   12.65672118637610   -3.72112147646557
H         3.68578390718951   12.74508406913050   -2.13567363528534
H         4.46424604840623   10.40394206496315   -2.36152617542955
H         3.70814487748416   10.29573578665329   -3.95426034377277
H         6.13826150016458   10.78458498809268   -4.16125788396923
H         5.18789947543061   12.14507394457393   -4.76788242939374
H         5.93681843508977   12.23520805916089   -3.17499212619708
H        -0.62509649164464   14.24017590726889   -2.84068970712178
H         0.98598289358730   14.13774030501840   -3.54430399208632
H         0.42431198166807   11.93411364473511   -4.56033500643344
H        -1.18302236585947   11.99444620306741   -3.82536457588158
H        -1.66685112118747   14.08980061049057   -5.07378435644554
H        -0.06855999047256   14.01916155091422   -5.81106212185175
H        -2.25299799980226   11.90273823232989   -6.13074271457170
H        -1.78975223632511   13.09625264492444   -7.34527572774410
H        -0.65282945850035   11.83268989028250   -6.87090090909887
S        -0.04413508099394   15.69127118466342   -0.60239432820763
C         1.13125640717685   16.28980750420629   -1.70498080515798
S         2.58229959385327   15.36724255303820   -1.68322918415475
P         2.35454693671498   15.55628618046294    1.57903288552575
C         3.75624893205608   16.63756925726688    1.07239180685972
C         5.01130809363008   15.84165805890024    0.73117548238483
C         6.06121787112483   16.71239296453464    0.04731959853005
C         7.31604734333907   15.91515070233861   -0.28474218590943
H         7.06842676814634   15.08584588985573   -0.94295310225449
H         7.76430894227317   15.50984626079600    0.62062520882190
H         8.05106676106940   16.54374645848035   -0.78308925909174
H         6.32083861463058   17.55206895020123    0.69902483111832
H         5.63816471609668   17.12138582588669   -0.87263459226516
H         4.74333924617772   15.02060958538131    0.06106134805384
H         5.43372796792093   15.40279917411834    1.63808196479279
H         3.94817156678291   17.36235769833590    1.86971885076496
H         3.42211873521634   17.19264434390304    0.18976877272128
C         1.18628539672108   16.84141634832963    2.19052005240144
C        -0.05847567071347   16.25214812173605    2.84298337493566
C        -1.04726090077741   17.34090813313580    3.24925664193957
C        -2.29948095568620   16.74873219689307    3.88311652935962
H        -2.99680328382359   17.53448391210177    4.16677534491397
H        -2.04404703546326   16.17501009606002    4.77189368689741
H        -2.79582829570005   16.08384153506754    3.18042936906220
H        -1.32641704283051   17.91648279000148    2.36394460501000
H        -0.56749915960420   18.02549917787620    3.95528784246042
H         0.22084226810869   15.66484702841502    3.72088901187848
H        -0.54604330045912   15.57638362514206    2.13644270972613
H         0.89705671907188   17.44479054755831    1.32382883359929
H         1.72640741644154   17.49039410131667    2.88727321178681
C         2.97575262560533   14.78197553131404    3.13682359376409
C         3.50057617866783   15.71954578814001    4.21741079330603
C         4.01203991125593   14.91572832246231    5.41260777990863
C         4.55111084261460   15.82201410019414    6.51292231261777
H         5.37612589662174   16.42627685505634    6.14022105098786
H         4.91042609050679   15.23155537107046    7.35264516014190
H         3.77217020041429   16.49171745696503    6.87251444581866
H         4.80123155047434   14.23736710016349    5.08047001181247
H         3.19925155537130   14.30371468730147    5.81011789292147
H         2.70806676276289   16.38880422264721    4.55805696451545
H         4.31797726431541   16.33021363074138    3.82862940169572
H         3.76639435185066   14.08528148960824    2.84038738407021
H         2.15385453072243   14.18293488278688    3.54118311951038
C         0.92944145470644   17.38430336120387   -2.52189570316029
C        -0.27082415379004   18.10374171825285   -2.50778639253696
N        -1.24806364029744   18.71243697935320   -2.51215298944111
C         1.91725297300236   17.83648044374366   -3.40399996834682
N         2.71499663994467   18.22610511147940   -4.13712817293338

