81
CSD_code = EBEMUT | q = 0 | S = 0 | Stoichiometry = C38H38Cl2NPPd | MND = 4
Pd        3.32491771105747    0.63957051321154    0.55512190076822
Cl        1.79138856237115    1.92382906745886   -0.68754408277245
Cl        8.48792077567308    1.08706784713854    2.44387847973810
P         1.83632301327833   -1.03804906789520    0.51388439506246
N         4.73928736130119    2.11467433779204    0.46468907764784
C         5.83226604341321    1.81784278721019    1.05695961155016
C         5.91774520779306    0.54828936722736    1.72368990706603
C         4.73920354273169   -0.23477694025615    1.69982108732654
C         4.73857322406520   -1.39936831925020    2.45841583469736
C         5.85703275014072   -1.80105170913807    3.17324778458365
C         7.02178278097970   -1.05067756143956    3.15762005399768
C         7.04217353606918    0.12770773419805    2.43838288901448
C         4.58126404146684    3.45110480207620   -0.09654837361056
C         5.37367251638982    3.53191862308191   -1.40270824614581
C         4.93156058547368    4.48325086326094    0.95677334261247
C         5.90909268158099    5.42248090727689    0.75488530141902
C         6.24293478296977    6.35630306360715    1.74662025159265
C         5.60116842341875    6.33854833846769    2.94948009340636
C         4.58657110937957    5.39244277365008    3.20483135470715
C         3.92104171709192    5.36906498088517    4.44825613676478
C         2.93499213295745    4.45942656729771    4.70077853965527
C         2.56899744262578    3.54003446301921    3.70845502497686
C         3.19549926165234    3.53329622376594    2.49252367221329
C         4.23131973093352    4.45171498843481    2.19940532779504
C         0.53754943860899   -0.90775898571011    1.82275561201457
C         0.08086977796228    0.55086401411714    1.87624338836825
C        -0.92752581933295    0.76919010320253    2.99892896343437
C        -0.33713901287029    0.35444829977243    4.34317717111500
C         0.12634962466370   -1.09752392834501    4.29477253435942
C         1.14202024249891   -1.29502419972697    3.17279996268233
C         2.41082924350449   -2.76959163914269    0.50060768053314
C         3.68626770922085   -3.00659708969455   -0.00345208897946
C         4.13938516125883   -4.30003356792553   -0.17704893650401
C         3.32202683443236   -5.36853155951054    0.15513446461391
C         2.05202179107967   -5.13892923239800    0.65657349827969
C         1.59176648851880   -3.84397993010212    0.82165558290775
C         0.90905214487494   -1.14361905335935   -1.08669935745595
C         1.86625174095540   -1.62984819883415   -2.13662725852787
C         3.05346764274116   -0.94483116751981   -2.38716289140765
C         3.94744580288687   -1.41265691080348   -3.33327547796786
C         3.67506464508104   -2.57384078141638   -4.03733633456849
C         2.50152485664687   -3.26351208726670   -3.79099782552416
C         1.60598844252896   -2.79506213416324   -2.84571446574321
H         5.02614696234735    2.73919475834543   -2.06542854032468
H         6.44049139877352    3.39593191423984   -1.23241369231431
H         5.20029506899328    4.48564490976336   -1.89332044238827
H         5.85783030991914    7.04619051402632    3.72462767243914
H         2.42915696600949    4.44640189054596    5.65519627585254
H         2.85722791511499    2.81331462613368    1.74587821736722
H        -0.35417902544491    0.84931930268665    0.91966583316825
H         0.96921777236326    1.17987459336887    2.04756758613384
H        -1.22117123599555    1.82009411755498    3.02767278624146
H        -1.82507527577870    0.17780189443117    2.79998554725911
H        -0.73449420967651   -1.74925730086848    4.12480310906874
H         0.57462187191235   -1.37889474500899    5.24982933241273
H         3.67365317223759   -6.38087477737374    0.02190181851517
H         0.07124012235245   -1.83830204327934   -0.97096020915132
H         0.53229239843216   -0.14803080267399   -1.33550588425836
H         4.86345399377235   -0.87112180334224   -3.52046457018441
H         4.37537755865121   -2.93930451844864   -4.77367625341553
H         2.28193646043647   -4.17097628502723   -4.33417733224175
H         0.69339199808041   -3.34287189521789   -2.65596505595528
H         6.65536292959468    2.52939081291740    1.12338015812305
H         3.85727737793020   -2.02491277769085    2.49820896365793
H         5.82501408952414   -2.71530646246438    3.74846219164609
H         7.89531781380200   -1.36944048437808    3.70435087186261
H         3.51914606825029    3.56816564231123   -0.35662800220325
H         6.44551602207831    5.46158399481800   -0.18008283948192
H         7.01842186572781    7.08106617712511    1.54637947804283
H         4.20983344530145    6.09164549841433    5.19850354375730
H         1.77424228964140    2.83585594566535    3.90778072345588
H        -0.31359542958031   -1.55687349730741    1.58037224351080
H         0.51764594272896    0.99202630208165    4.57918168186187
H        -1.07919297292612    0.48419041137761    5.13351804025529
H         2.01605798169802   -0.65652207463371    3.35335749042922
H         1.47704709548439   -2.33545653534195    3.15777783479974
H         4.31984495710258   -2.15932057183436   -0.24932585676138
H         5.12839689179630   -4.47683448835858   -0.57252104910585
H         1.41379223485996   -5.97194946468885    0.91358089577504
H         0.59348242975443   -3.67566289523469    1.19975211846728
H         3.28162905452517   -0.02098648463084   -1.84461827202703

