38
CSD_code = EBEYIW | q = 0 | S = 0 | Stoichiometry = C17H17AuClNO | MND = 2
Au       12.07124605386959    1.73354653629720    7.24267016228442
C        10.40580799798750    2.45011373418683    7.68476144032522
C         8.16000339706974    3.40362996399166    8.30590238811870
C         7.00556276101207    2.64728769581628    8.10223160602502
H         7.08515027601154    1.65620669905604    7.68200355736052
C         5.78118417830895    3.17664822127137    8.44705413886637
H         4.89028373587427    2.58397272779174    8.30689718022922
C         5.67683728628153    4.45554780202227    9.00019994875931
C         6.84577063451906    5.19554637269868    9.19566778495120
H         6.78170489686262    6.19313187640443    9.60239522789942
C         8.07857740246681    4.68403677974445    8.85361966363650
H         8.98001668382073    5.25960847666006    8.99944594512739
C         4.36992121099727    5.00585442458170    9.36886589265533
C         3.24263121090107    4.77154313690395    8.57760354232870
H         3.33795472072387    4.20172228628454    7.66549156391177
C         2.01670016934233    5.28857481780015    8.92450232784687
H         1.14645427654064    5.11913583565834    8.31052251310917
C         1.86649708348867    6.05084961394696   10.08736717662218
C         2.98428402628618    6.28648574577442   10.88390852711908
H         2.90679822571182    6.86539548240494   11.79060785240954
C         4.21491099589805    5.77354964821981   10.51952452969691
H         5.06446726412257    5.95051105018846   11.16260519603939
C         0.38132538459195    7.27164880546317   11.50421023743712
H         0.98277066781576    8.19111153518543   11.47804702889171
H         0.65725756845985    6.69761460359200   12.39982036128111
C        -1.10304059939025    7.61713326999098   11.54212948464523
H        -1.35703275852042    8.16679724549534   10.63433961286251
H        -1.67672647165431    6.68883135864461   11.54029783640597
C        -1.45929738781760    8.44746770962348   12.77196837578544
H        -0.87947336878833    9.37332460885335   12.76427793689044
H        -1.18738424708755    7.89372675752003   13.67361413538588
C        -2.94561028403637    8.77986103784232   12.81057164105535
H        -3.23224574106915    9.34886927100611   11.92924227231640
H        -3.18125161409580    9.37031057211301   13.69248528669442
H        -3.53943552183875    7.86917987124695   12.83798836820503
Cl       14.03930361355492    0.88273022929974    6.72796050161700
N         9.36732436848764    2.89099233143611    7.97112368732563
O         0.61655190334897    6.50180186508673   10.34087506783112

