47
CSD_code = EBEZAP | q = 0 | S = 0 | Stoichiometry = C20H23AuClNO | MND = 2
Au       39.29809218835881    1.55340536104070    7.60352529097489
O        51.47668507621496    2.10194469211768    3.75283266830037
C        46.12534543889705    1.76931333627144    5.43338243728882
C        47.51682362862908    1.82952604969030    4.97811623327392
C        44.03831889008369    0.56871839198621    5.63783429381791
H        43.44134704786525   -0.31612659760531    5.47704306413423
C        51.92121266055661    1.62686602437846    2.49687915159154
H        51.35943688767577    2.11479486262025    1.68804870923366
H        51.76775747609643    0.54107009117192    2.42487702561332
C        43.47702725029900    1.67001164990363    6.28437903900688
C        45.54535138297786    2.85856515334514    6.08848622279699
H        46.12685753751325    3.75388785531801    6.24640828305343
C        50.17248888943047    1.97117223520832    4.08717279661555
C        47.89270181318997    1.28727453044586    3.75282718346487
H        47.14710686208625    0.82697161791592    3.12125283892827
C        49.19768945188308    1.35973684549072    3.30290241701743
H        49.44357942942590    0.93967723591310    2.34043291059264
C        53.40442794486164    1.95812052646737    2.37553444572576
H        53.94260005054826    1.45574008613192    3.18091943508162
H        53.53061926439357    3.03350105325765    2.51207661203902
C        45.34939408765861    0.62790972523761    5.21770327531183
H        45.78940324934705   -0.22956536298654    4.73197209821478
C        48.50073828147377    2.44175119555046    5.75805720076514
H        48.24167316896649    2.84665384868635    6.72489697330468
C        49.80458350121404    2.50466741005245    5.32647489954721
H        50.57037961759013    2.96644346207674    5.92921812831038
C        55.45551574084583    1.87009210922747    0.90293634015663
H        56.00839377616325    1.34766816482040    1.68704987570030
H        55.59643160139609    2.94223817752465    1.05861863474674
C        53.97062132674719    1.53514934218477    1.02344909616266
H        53.82981368563741    0.45976884330404    0.89005936301662
H        53.42082295912790    2.04166329023072    0.22629265638697
C        44.23453405663889    2.81954666739660    6.51072958322703
H        43.78412847715054    3.66502422039905    7.00815324403219
C        57.50792222343648    1.81082718009705   -0.58036402745847
H        58.06048045998837    1.26906649457977    0.19080242077330
H        57.65516812390591    2.87885354049518   -0.40343461888140
C        56.02178272079161    1.48099188483473   -0.46037355486564
H        55.87653912434364    0.40982921044875   -0.62046895249382
H        55.47192002062913    2.00895572265412   -1.24340417275534
C        58.06076909303756    1.44435112501216   -1.95208674690721
H        57.93613557009483    0.38012451613232   -2.14201165055834
H        59.12013424100868    1.68277018815930   -2.01450287055765
H        57.53868181154562    1.99412703844887   -2.73281184189375
Cl       37.19507114307832    1.51362837432803    8.26701256064787
C        41.07727104155729    1.59319341758510    7.04223217043505
N        42.18732172560733    1.62559921249726    6.69346885704178

