50
CSD_code = EBEZET | q = 0 | S = 0 | Stoichiometry = C21H25AuClNO | MND = 2
Au       20.81900316580323    3.34614593593249    5.93002849486975
Cl       22.89368906716878    3.33070123948238    6.67689454099697
O         8.90794025478793    3.93399450822197    1.32064990374940
N        17.98041596737648    3.40862659675697    4.87229881483334
C        12.77228549970263    3.63380283653021    2.81828209216289
C        16.71888773819286    3.45745489112764    4.38378000006005
C        19.06699459105057    3.37241457070326    5.28799956050041
C        16.19726284935556    2.36028014963380    3.69811333005476
H        16.80149818018153    1.47484348802212    3.57124259843245
C        14.12999564853335    3.56707668019176    3.36498642872576
C        10.18386296420798    3.79198942910330    1.74687815223850
C        11.20348691952558    3.16185732559623    1.03780687541982
H        11.01934402710955    2.73280602259497    0.06559787248339
C        15.95056781408481    4.60751171999453    4.56655740726211
H        16.36974740591516    5.44971603171814    5.09582951753713
C        14.91578374975032    2.42432711363473    3.19578410998115
H        14.50646889333233    1.56930304824596    2.67994113959384
C        14.66986327758395    4.65187601220832    4.06076093279329
H        14.08255839343489    5.54869587496538    4.18471609199773
C        12.47423289357256    3.08259142826856    1.57549744895035
H        13.25569545296614    2.60935076011647    0.99936847642952
C         8.54613202444629    3.44006570057184    0.04532215297495
H         8.68679982747581    2.35088312290636    0.00678791387966
H         9.17237367461272    3.90225467838663   -0.73042009417657
C         7.08132656257832    3.78964317858577   -0.19170412976909
H         6.96496584605189    4.87137030665795   -0.10730781127454
H         6.47963213376990    3.32852474535770    0.59302623301001
C        11.74304600839444    4.26193995884700    3.52375435479865
H        11.93871352437134    4.67304262286070    4.50278529264548
C        10.47233025078859    4.33379778662057    3.00347991116387
H         9.67273431387087    4.80946845753195    3.54883506931192
C         6.60427940731182    3.31924064481347   -1.56254767322963
H         6.72066158061906    2.23533641372429   -1.63549477831853
H         7.22791048349406    3.77098791523959   -2.33776043746684
C         5.14418731208222    3.68885929746824   -1.81232722351342
H         4.51962151490767    3.23502171351052   -1.03980257881610
H         5.02884574618281    4.77226169837617   -1.73545059721366
C         3.20584654778206    3.60114986508151   -3.43907465722695
H         2.57801556782197    3.14742906805710   -2.66858173986444
H         3.09254236519680    4.68498426713585   -3.36041317140517
C         4.66413587791841    3.22707042607135   -3.18614954677266
H         4.77718712400306    2.14302191026437   -3.26296800061658
H         5.29140803185620    3.67886709367913   -3.95837260148932
C         2.72454336462578    3.14377722397864   -4.81392871829555
H         3.35016102355181    3.59960107159044   -5.58480070065797
H         2.83928732480973    2.06033165446615   -4.89376804474085
C         1.26783304722234    3.51781266639564   -5.05777139708519
H         0.62586563874524    3.05896653935669   -4.30892214275637
H         0.94454215561765    3.18084441295768   -6.03985966704756
H         1.13698696617719    4.59647989628093   -5.00467900511135

