89
CSD_code = EBIDIF | q = 0 | S = 0 | Stoichiometry = C40H40Cl2N2O2P2Ru | MND = 6
C         2.60536580827201    2.48854025163526  -18.55706573639694
H         3.02807472354547    2.73461338381239  -17.59359490646800
C         1.86483050397507    3.42289854525189  -19.23576207647419
H         1.71201535221188    4.40928620760600  -18.83209826920245
C         1.29817401271441    3.08111440885930  -20.47215948228804
C         1.46184099848690    1.77407763884689  -20.90527497577447
H         1.00978865022512    1.43349445340547  -21.82091725657378
C         2.20419605449541    0.87444741414033  -20.13974171169985
C         2.28671213813929   -0.54771229583259  -20.43215200866643
C         1.64212510578901   -1.17326529922335  -21.49932676094319
H         1.11700704101366   -0.57789359205576  -22.22616429469564
C         1.68978694121205   -2.55526670957895  -21.60888624273822
C         2.34743345147323   -3.26747145252971  -20.59729364763163
H         2.36418649264505   -4.34342321240156  -20.62871106370997
C         2.97633538651516   -2.57554765457234  -19.59145684919105
H         3.51182719686523   -3.10076668026010  -18.80959677945203
C        -0.00143404289714    3.73464549554908  -22.34857208507039
H         0.72922643345978    3.41775984786975  -23.09961515631887
H        -0.48294135223519    4.65288580331090  -22.67974002867802
H        -0.75896610132179    2.95508155080595  -22.22170373626353
C         0.51041297088731   -2.60229900497136  -23.66821206987876
H        -0.36820356415244   -2.05108087140514  -23.31850314757646
H         0.19378552872273   -3.37571183882576  -24.36575380263833
H         1.19785256205004   -1.91585865531346  -24.17311482434784
C         5.37625723965591   -0.64214908582763  -21.12285072786124
C         5.53259369035790   -2.01544014436863  -21.29433693222803
H         5.95051035744395   -2.60904664400702  -20.49381615920466
C         5.13924782827710   -2.61944263185680  -22.47436524383707
H         5.26772468752969   -3.68421003096500  -22.60121517153858
C         4.57284457067068   -1.86539954642964  -23.48924690154369
H         4.26878581085956   -2.34060645806122  -24.41064900311669
C         4.39186349717408   -0.50308021087926  -23.31597843039895
H         3.94348867394653    0.08891472768383  -24.10204617345271
C         4.78135089127216    0.10508662472269  -22.13687306837112
H         4.63106633553679    1.16867672246354  -22.00077312855366
C         6.28431309839574    1.78013508070652  -20.09790459899368
C         5.74548469247540    2.92831351984249  -19.53183373133990
H         5.00922957340549    2.83027195135971  -18.74565543507094
C         6.14434479797170    4.18143984558546  -19.96347340510789
H         5.71559651314934    5.06596242364831  -19.51514194656468
C         7.09072044970189    4.29618907126751  -20.96729606302977
H         7.40659236644090    5.27189009574326  -21.30589640126192
C         7.63123883002033    3.15518319852502  -21.54055844390248
H         8.36736470276459    3.24308979223142  -22.32651234698080
C         7.23037233643916    1.90376887120821  -21.11204982458676
H         7.64381346568491    1.01783485265079  -21.57341231028474
C         7.38327756816426   -0.65945247510632  -19.14192823245448
H         7.14717999508948   -1.66021798126217  -18.76857613592879
H         7.92294202644771   -0.74840120321109  -20.09143788997982
C         8.26024232046253    0.05257845869030  -18.11398141676764
H         8.52138001204121    1.05484127029622  -18.46930871201636
H         9.18963048366175   -0.51899566864284  -18.03972083026015
C         4.99174976243296    0.05548319199482  -14.68544619192155
C         5.73249676865303    0.61723219749094  -13.64675429473152
H         6.27603050211352    1.53947449033062  -13.79775882347407
C         5.76595391787104    0.01154573251477  -12.40607637247574
H         6.34827304203621    0.45322580038088  -11.60949032000105
C         5.05115353491242   -1.15426430600046  -12.18043809908271
H         5.08251025924668   -1.62736409723767  -11.20937334124430
C         4.28891497079757   -1.69862378553226  -13.19783399698836
H         3.71482571627502   -2.59687466636970  -13.02489495531048
C         4.25352138658645   -1.09583070354307  -14.44368923724894
H         3.64007674424349   -1.51884338104834  -15.22485201445458
C         4.23182875182527    2.47343218575062  -15.68073567208076
C         4.80561543941167    3.72817183470768  -15.85676881201879
H         5.73981093425193    3.83669953305788  -16.38890289305128
C         4.17659402315701    4.85433815726510  -15.35193675631708
H         4.63212291887363    5.82557945070877  -15.48559693861576
C         2.97206392659049    4.74094627988780  -14.67908028273159
H         2.48845236190312    5.62321201081301  -14.28563726245013
C         2.38618727789721    3.49452192926396  -14.51609155049025
H         1.44179383419011    3.40323196207490  -14.00007673878165
C         3.01023654012247    2.36773245937764  -15.01423822614233
H         2.55296569327817    1.39171919990708  -14.91542203534095
C         6.71075861104768    1.35813367174597  -16.55391937832562
H         6.76051231415081    1.98465984688364  -17.44883651366042
H         7.03380288983371    1.96659000704855  -15.70594897021269
C         7.62912592722856    0.14045584558759  -16.72241154234578
H         8.42754257938562    0.19723284498827  -15.97995439998523
H         7.07290483044039   -0.78116449952166  -16.52893264836420
N         2.83222069360023    1.25021993360287  -19.00153663104540
N         2.98617702184814   -1.24644425902029  -19.52113717608010
P         5.75180982491585    0.12774532096934  -19.51266105479710
P         4.93271911234549    0.90524920770497  -16.30715903813714
Cl        1.96007129180217   -0.55006965012889  -16.83479318536999
Cl        5.10804111516755   -2.10981390267845  -17.31916677281708
Ru        3.93232038106019   -0.17262031154389  -18.11872899485743
O         0.62107050178836    4.05115249051254  -21.12521574137951
O         1.14855549164598   -3.28035418226660  -22.61164756029232

