49
CSD_code = EBIHUS | q = 0 | S = 0 | Stoichiometry = C12H30Cl3OP2Re | MND = 6
Re        3.90437514837468   13.32577112289461    3.09007157641214
Cl        5.09213736066644   12.28755371232349    4.80224535844885
Cl        4.83774776801292   11.98607808941484    1.56397918864333
Cl        5.72669988425043   14.76122210694691    2.84553312967157
P         2.33258093370441   11.41193506638553    3.28490931950707
P         2.89533218361014   14.65007388639638    1.23036547078723
O         2.94049256294146   14.29370947668239    4.04675282943942
C         0.77499436686853   11.82063067252280    4.17787708465460
C         1.06758738174244   12.41760983318195    5.54877883672824
C         1.78014145936471   10.74438421449888    1.65814718747855
C         0.78742952895129    9.59051170920319    1.71906139263164
C         2.93982147297445    9.95386732029751    4.21985449785183
C         4.08917896126649    9.21805833133495    3.54400278611093
C         3.38012494925697   16.41674355490125    1.30362108952990
C         2.95133894148216   17.06102007785639    2.61632071140209
C         3.28539729290868   14.13297197855269   -0.48771022020293
C         4.72479428134915   14.46622595721954   -0.86530049056476
C         1.05259281503306   14.67337465913868    1.33574296096913
C         0.33785166221956   15.65904239933362    0.41965217806244
H         0.23055929489034   12.54302710259168    3.56433739590985
H         0.17296156175027   10.91260472089719    4.27105623601654
H         0.15527816005843   12.79726669001965    6.00328526420089
H         1.77364730206130   13.24318060822738    5.44402149673824
H         1.50374015732937   11.67753166330463    6.21428024007764
H         1.35081943216635   11.58239951335483    1.10249484119459
H         2.68820603245097   10.44051654117193    1.13156029960804
H         0.55633971794811    9.25717591435888    0.70904001826414
H        -0.14290350420203    9.89283136071581    2.19349317136951
H         1.19804754037486    8.74468953048365    2.26352072869876
H         3.27848048008819   10.33420878757863    5.18691703791454
H         2.08185321856458    9.29200344339724    4.37979196771232
H         4.39799368293714    8.37483404586902    4.15831888115699
H         4.94126360452460    9.88401812420711    3.43520578107155
H         3.80842632993605    8.84501332394220    2.56140529033814
H         4.47028576660417   16.43347032211323    1.23439482916949
H         2.95730004732478   16.93069397809294    0.43482791058118
H         1.87296242537280   17.19244353210306    2.66874460543426
H         3.42517127006764   18.03274485275463    2.73213169030090
H         3.25999595628297   16.42772544028367    3.44953243130579
H         3.13172231654129   13.05094926804830   -0.52955517898517
H         2.58176244382200   14.61232166952664   -1.17287375662880
H         4.99737892611630   13.95844157369629   -1.78786444443354
H         5.40623994672660   14.14071165954629   -0.08192375018068
H         4.85494815505286   15.53557209045862   -1.01000537950229
H         0.70961874233747   13.65665537653381    1.12848267304599
H         0.82986912423136   14.88932787070036    2.38465920888480
H        -0.73826732106257   15.56494705841003    0.55311548106295
H         0.56265462499421   15.46463037276718   -0.62627666619249
H         0.61492560974749   16.68397939575514    0.64837680832826

