71
CSD_code = EBIYOE | q = 0 | S = 0 | Stoichiometry = C28H28CdN6O6S2 | MND = 6
Cd       -0.00000157647704   -0.00002731793339    0.00000930810763
C         2.31084463127178    2.17955500441702   -0.87330637917505
C         2.44022924441502    3.35351587957725   -1.79663828065992
C         3.61376681403796    3.95544364506809   -2.22042932925928
H         4.56439368646273    3.59102698498540   -1.86266241100531
C         3.52415767299194    5.02436225380823   -3.10013968906454
H         4.42486496990539    5.51214004608680   -3.44249949957659
C         2.29084122899039    5.47727141912292   -3.54622156706623
H         2.24300228638242    6.31117843464623   -4.23040831891424
C         1.11342004583185    4.87175864695555   -3.12008384888954
H         0.14853301509183    5.21657944898571   -3.45649167029135
C         1.21499579295825    3.81138066167745   -2.25026182747351
N         1.04534884200602    1.84400715663943   -0.64201742374874
O         3.28864053213423    1.58516006280282   -0.41783011407541
O        -0.79187192088075    3.58916685997687   -0.51668045639949
O        -0.78157459189614    1.99974172398628   -2.35692673781165
S        -0.01059686746070    2.79222104679217   -1.42664892201814
C         1.62421257326470    0.86241353317550    2.53575738103049
H         2.34194806195124    0.93654271484576    1.72914555144597
C         2.04535403734586    0.84022670165345    3.85403816769985
H         3.09699652507779    0.86304180000181    4.09210198409252
C         1.08601745547034    0.77512339831831    4.85089709897798
H         1.36851960564603    0.73596493793818    5.89316425238506
C        -0.24574740468114    0.78107041699195    4.48204417495328
H        -1.02270726717864    0.75697535651228    5.23203018975973
C        -0.58398004006500    0.81354384354599    3.13047006003474
C        -2.03123944438536    0.86535241679324    2.72520030589826
H        -2.37612349323683   -0.14924869795516    2.50640727166789
H        -2.61516823286818    1.23801569726472    3.56989822561816
C        -2.29533523354871    1.74004612576278    1.49471045926725
H        -3.34361368511786    2.07674429138675    1.52705359119491
H        -1.65180873320118    2.62469028578391    1.50718502740229
N         0.34553231219992    0.82915253150717    2.17962360493697
N        -2.02785185444443    0.99952260306536    0.26402288820556
H        -2.14080334391308    1.62215836553301   -0.53303203381326
H        -2.71168782960357    0.23845017798412    0.18363904238216
N        -1.04535106087610   -1.84405545626956    0.64200644885717
C        -2.31085026472105   -2.17960820756785    0.87326025434721
C        -2.44025734686383   -3.35354974986338    1.79661394820816
C        -3.61380548195111   -3.95548763591115    2.22035968377612
H        -4.56442065870367   -3.59109449195817    1.86253726338976
C        -3.52422279789812   -5.02438435072804    3.10009971819559
H        -4.42493967541676   -5.51217192539165    3.44242425055200
C        -2.29092044663410   -5.47725928528979    3.54625612384065
H        -2.24310098400579   -6.31114898097382    4.23046526813448
C        -1.11348893362841   -4.87173543702674    3.12016366827071
H        -0.14861480006394   -5.21653292784970    3.45663057174753
C        -1.21503902559412   -3.81138118407312    2.25031088372650
S         0.01058386945877   -2.79224369818168    1.42670351113999
O         0.79185786817376   -3.58922764274488    0.51677622371602
O         0.78151861535975   -1.99972233557842    2.35696981704258
O        -3.28863547648370   -1.58522869956983    0.41774186462513
N        -0.34549493979209   -0.82917313941174   -2.17963805483951
C        -1.62417114636890   -0.86237853582119   -2.53579327413308
H        -2.34191966657078   -0.93652354839214   -1.72919449895701
C        -2.04529315558007   -0.84008527619909   -3.85407847081641
H        -3.09693293739976   -0.86284610048412   -4.09215917131791
C        -1.08593998436391   -0.77493903142217   -4.85091869074802
H        -1.36842535836862   -0.73570525117890   -5.89318760409427
C         0.24581923326408   -0.78095602301691   -4.48204707220368
H         1.02279062212691   -0.75684628740316   -5.23202040728424
C         0.58403145075464   -0.81353150079628   -3.13047008901683
C         2.03128428881658   -0.86542999541607   -2.72518515199746
H         2.37623139876419    0.14915180181424   -2.50640131122353
H         2.61519720479628   -1.23813761898826   -3.56987511632406
C         2.29531845009635   -1.74012814465473   -1.49468695393453
H         3.34358182553739   -2.07687542856906   -1.52700944858555
H         1.65175280373743   -2.62474387415944   -1.50716658339709
N         2.02784950219579   -0.99958174788039   -0.26400988822034
H         2.14081463524720   -1.62220114917923    0.53305537733860
H         2.71168455852829   -0.23850559755786   -0.18365316561810

