56
CSD_code = EBOLEN | q = 0 | S = 0 | Stoichiometry = C19H31CrN5 | MND = 5
Cr        2.15507942059033    7.34601437057311    2.52128543017040
N         0.25357048127761    6.78478647900221    2.59547138661776
N         2.81111190305069    5.84854519286788    2.65247655320811
N         3.63459462130783    8.38776735675441    3.32663964041523
N         1.22267920809935    8.48474480207699    4.31190173608758
C        -0.67662209264216    7.46740640068721    3.32363103163445
N         2.12003092623932    8.07890619180182    1.05031513771264
C         3.34947904824306    4.56836203347530    2.50286258685959
C         3.40959174865932    9.39755523382758    4.21713259604212
C         2.25698190597151    8.36760111648314   -0.30831358784597
C         4.98253013406757    8.29556623382408    3.18049323857211
C        -1.90460674485973    6.86077482156334    3.22468425883303
C         5.61203210912162    9.22695437226119    3.96683110237010
C        -0.39617185357149    5.73696478294587    2.02469667610544
C         1.98075987639786    9.72312240439806    4.51044041578967
C         1.37036922993770    7.62134144350907    5.48216480283980
C         3.25480820727775    4.11586363829493    1.03350460201439
C         4.82942095235070    4.58418709344176    2.93606200107932
C         4.59818179741282    9.93935593042831    4.64004830020841
C        -1.72071302226983    5.74504478303542    2.38245883787706
C        -0.19960706608418    8.69610681241447    4.02798573162640
C         3.74068891746691    8.22689666017065   -0.70058883796743
C         1.40727967745308    7.36416960602222   -1.11285791825731
C         2.56519925874953    3.59353440107066    3.40456449159564
C         1.77664212074141    9.80366238426126   -0.58803881694950
H         5.41093193342096    7.57001912959296    2.51314949809322
H        -2.81840445034991    7.17727286124397    3.69066532533476
H         6.66986146572269    9.38459550378733    4.05547138020554
H         0.12854169103016    5.04990904500361    1.38548106004083
H         1.61495653112103   10.47637749848004    3.79817804416552
H         1.85145973721949   10.12537391563789    5.52760120478116
H         0.94481889212592    8.10030918888565    6.37639580162044
H         2.42827603262974    7.42278026121094    5.66313921954022
H         0.85137839745962    6.67631002811659    5.31221427887144
H         3.75165287041392    4.84603266657539    0.39826226263713
H         2.21210789783905    4.04895431680091    0.73347822670815
H         3.72614548405539    3.14481274551453    0.90375766242100
H         5.41062688662587    5.18700589117241    2.24327088315323
H         5.22444338716283    3.57142352733719    2.94480432027896
H         4.92135156177017    5.01386869514927    3.93091667250562
H         4.72605601689402   10.74519395654996    5.33772151946805
H        -2.47225039699929    5.04001414531138    2.08267311357183
H        -0.77671895830398    8.89394814859293    4.94500458069539
H        -0.29944349994836    9.56957733996336    3.36803856500802
H         4.07988849914176    7.22094725369088   -0.46297012672803
H         4.33919884518969    8.93479536784568   -0.13167005851218
H         3.87187699494402    8.41479422194554   -1.76319575385388
H         1.74690926279053    6.35359510968780   -0.89836081911965
H         1.49630799961114    7.56150474036365   -2.17809496382376
H         0.36393626463258    7.44637277515797   -0.81661289584034
H         1.50725244122647    3.63268441866891    3.15515406468405
H         2.68636765833333    3.87725511934473    4.44762159751810
H         2.92870358040647    2.57823519749824    3.26743385080800
H         2.36741076797954   10.50832960079050   -0.00667015402893
H         0.73151582039013    9.90426523569229   -0.30334810218183
H         1.88092962047372   10.03890754918851   -1.64416165465321

