56
CSD_code = EBOLOX | q = 0 | S = 0 | Stoichiometry = C19H31N5W | MND = 5
W         3.57305926089450    6.53513573657828    3.27970263748406
N         3.66411752438499    6.20331211060553    5.34401300533305
N         2.36178646164088    7.06046659036011    1.65725518541310
N         1.45319327208512    6.00635436842516    3.91251029416918
N         4.19015524729326    4.94282694636626    2.68942211384787
N         4.75917472963506    7.85429399133434    3.19350246427124
C         4.50501155392739    6.53043279489061    6.36792561432980
C         4.03003689000511    6.03578518993287    7.55634369478597
C         2.82533389087742    5.36323753456257    7.26436754190413
C         2.63942716417121    5.48402507761355    5.90920604507445
C         2.45049816560483    7.87209662647219    0.56330024242812
C         1.29078626742852    7.81964274270217   -0.16825436280747
C         0.42696205252519    6.92834308403449    0.50126094346197
C         1.11548431570361    6.48460903585006    1.60333752186029
C         0.77021350596611    5.52588044151255    2.70333149638914
C         1.57155889617845    4.99801313200296    4.97530903241419
C         0.77532625725006    7.19939487365724    4.42889440651514
C         5.32363556315117    4.26547296869632    2.17439986559645
C         6.41420493720817    4.29001061580107    3.26555637190073
C         5.80714071740117    5.04666924229203    0.93472482686041
C         4.99655168538519    2.81308223525081    1.78725684044969
C         5.74133945248357    8.87358180197064    3.16583963400946
C         7.12812523871944    8.28415146940467    3.49518785399614
C         5.38995177670509    9.96425673057523    4.19935198366646
C         5.78898372765805    9.50854186660150    1.76133502397288
H         5.40092211932009    7.09769967728769    6.17937117440006
H         4.48303676790504    6.13903089105416    8.52324595272040
H         2.18435987078823    4.85431467084324    7.95882685320567
H         3.34887284080953    8.43386025378205    0.37285562316591
H         1.07725047400349    8.35224578735490   -1.07465736911871
H        -0.56644720397148    6.64720193652098    0.20747234011872
H        -0.31939944412737    5.45108433667105    2.84934960337758
H         1.15756395241049    4.52340903843839    2.46629981119536
H         0.61524079707122    4.83831901226155    5.49869408425090
H         1.87696030565327    4.04697466781835    4.51332463591640
H        -0.25380358655479    6.96137939615818    4.73858142041849
H         0.72917924105790    7.97144766260228    3.65241907892124
H         1.31348917871433    7.59067631073416    5.29981898750832
H         6.52393104140435    5.32075069886671    3.60966694842667
H         7.36150606031658    3.91815841495904    2.88303185606594
H         6.10530862814797    3.67613745293383    4.10954883069606
H         5.91158349884476    6.09632477394125    1.22057067654282
H         5.06153565269545    4.97795103546699    0.14432108629559
H         6.75431962129856    4.65860553776671    0.56795915540578
H         4.21751996256826    2.79823400079685    1.02787639637263
H         4.64302541876590    2.26637418696575    2.65903938315524
H         5.88065992543009    2.31659248542528    1.39551458689175
H         7.40564192898948    7.55134953164314    2.74123679090892
H         7.09788738433944    7.78938998789017    4.46357273321077
H         7.87956784033812    9.06985838015571    3.52192052380751
H         5.35802187100048    9.53121026580364    5.19714296712230
H         4.41021206335647   10.38177789600332    3.97337437054782
H         6.12748914106773   10.76331803654526    4.18268190318361
H         5.97361169623648    8.73759984762698    1.01556717954688
H         6.58105688699414   10.25186861427673    1.71023002239460
H         4.83883751083201    9.98983800391070    1.54006211600027

