23
CSD_code = EBOMOX | q = 0 | S = 0 | Stoichiometry = C10H9AuN2S | MND = 2
Au        2.08312519355279   -0.57849171795070    3.60040399003691
S         3.99551991695780    0.57239461858459    4.05980740418648
N        -0.49989514582994   -1.96719194110510    2.74602351518730
N         4.00247416496586    2.03537633175447    1.66261660198961
C         3.99182658170836    1.43163522174970    2.64166826732487
C         0.48159540258473   -1.49631583555375    3.15127787244903
C        -1.64418412880165   -2.51384927412108    2.27266854775080
C        -2.31150469991165   -3.46959825642414    3.05196593320331
C        -3.48103986971374   -4.01084883216089    2.54371287035999
H        -4.01555121853321   -4.74850528783040    3.12252563513419
C        -3.96663082688804   -3.61613505698679    1.30806941941332
H        -4.87968678056319   -4.04893309020469    0.92922306675333
C        -3.29051231274138   -2.67110900433142    0.55461710443685
H        -3.67752315533283   -2.37108022160096   -0.40713757621902
C        -2.11647367846255   -2.09975158288639    1.01855456197246
C        -1.76035402388577   -3.87309157114317    4.38189261979377
H        -2.39208205519398   -4.62508424405255    4.84564214217495
H        -1.69592617578608   -3.01188837475395    5.04703751994748
H        -0.75471045365852   -4.27924267845188    4.27317464313915
C        -1.36397854157310   -1.07723358840793    0.22995545627316
H        -1.28559936452770   -0.14333468365811    0.78668580107638
H        -1.86314374122600   -0.87858378563381   -0.71393490346185
H        -0.35004508712964   -1.41953714482344    0.02374950707348

