67
CSD_code = EBOMIU | q = 0 | S = 0 | Stoichiometry = C30H28N4S4Zn | MND = 6
Zn        7.65510290849159    2.17398749333642   13.96244247631447
S         7.35575522109268    0.76748571169263   16.02754186983422
S         7.46937383405081    0.63771809101698   11.94049029629786
S         7.79620814064602    3.67126783174941   16.02751242795753
S         5.34708947584642    2.37959056467761   12.98485626638911
N         5.00622101349259    0.60566827963335   11.03587016071672
N         8.43461078703520    3.88241022917452   12.83183488667134
N         7.25101606033710    2.29952776755177   18.19690652592581
N         9.81841801413810    1.85657891565665   13.90302335040827
C         7.46658888197773    2.23720755623534   16.87101425322048
C        10.40313403336080    5.15748526411288   12.45331972863479
C         7.11911212714991    1.15979597062224   19.01144949505535
C         2.66521365748540    0.15108427603741   10.70285288885645
C         5.86212373674778    1.17744478355184   11.90082183849466
C         7.96337032759691    0.06348880204842   18.88164306004630
C         3.70105334628131    1.08259373644982   10.81506235967002
C        10.50156335917616    2.75902996090183   13.19963452282843
C        12.45389860460016    1.37456462753751   13.25634639216550
C        10.40937896811391    0.74280821856312   14.29461438095073
C        11.83291380537399    2.54206527398167   12.84789032144292
C         9.76439833125722    3.97097858525963   12.80975583663087
C         3.42994943970964    2.43822109015567   10.67346683405648
C         6.12837878064185    1.16059588793015   19.99735735452995
C         8.25524117794026    6.13589140109154   12.10380383382870
C         3.05243929371756   -1.29479534734632   10.69954931486514
C         7.70137855274935    4.92562287133576   12.48909659950226
C         5.96483335926797    0.04440010186003   20.79888353305550
C         1.36950376477074    0.59490502931938   10.50483507757427
C         7.78129552528130   -1.04696376122888   19.68461005406427
C         6.77244866254292   -1.06738097813647   20.63225996631260
C         9.63571500877738    6.25289271440480   12.09731252392518
C         5.42624547480585   -0.62490940357078   10.37285826688410
C         7.04884410806179    3.61657501226572   18.79281757664656
C        11.73336659304424    0.45638667239485   14.00306743291712
C         2.12903306967357    2.86563596046189   10.48394544302786
C         6.41404527877278    3.54753029214771   20.17544720046612
H         7.17080819479574    3.33065693627734   20.93294052945204
H         5.96972325305919    4.51638545115789   20.40493295820691
C         1.09419976150242    1.94865005179254   10.41651490445558
C         5.36659092122817    2.43426111468818   20.19227901798039
H         4.65415366152901    2.58919745710408   19.37748640465394
H         4.81709780579005    2.41914414191821   21.13386847113104
C         4.26019951467313   -1.39580086268637    9.76768773888898
H        11.47831759102221    5.23322546470053   12.47748352981416
H         4.23589480956075    3.15309812824025   10.70968113074980
H         1.92566454591083    3.92105644157747   10.38301102919511
H         8.76006149023234    0.08268832429519   18.15591509891545
H        13.48322071266609    1.18373814170037   12.99067531524253
H         6.63044697013019    4.78095827449228   12.53101479895515
H        12.36780976742805    3.25944045849212   12.24654214687762
H         0.07790553504482    2.28514726112861   10.27647460172844
H         5.19484175123764    0.04850705133877   21.55716943201820
H         6.62688860094113   -1.93875877938387   21.25289899680450
H        10.10959977140285    7.18428272197918   11.82456619105288
H         7.62103527174974    6.96375856820047   11.83050335479801
H         9.79281779827896    0.05822506475698   14.86093670117012
H        12.18018266163204   -0.46412223307801   14.34262052133139
H         8.43613522724421   -1.89772828003595   19.57151435116192
H         2.22825369605938   -1.91811568243098   10.35167877182925
H         0.57119713926670   -0.12892441645991   10.42251508798394
H         5.93183473497620   -1.24220339023435   11.12358300339551
H         3.33574192396603   -1.62297909873429   11.70330591643728
H         6.40300210401262    4.18486290185089   18.11434430576098
H         8.01317575609535    4.13653902024798   18.83080329916740
H         4.56465524061043   -2.43238076015965    9.62102726053967
H         6.16963133848395   -0.37544884504445    9.60684078857528
H         3.99004972546091   -0.97825011058639    8.79498999154865

