73
CSD_code = EBOPUJ | q = 0 | S = 0 | Stoichiometry = C32H32N2O2S4Zn | MND = 4
Zn       -1.13500121696908    2.51269498986929    8.76209886028283
S        -3.37773579217153    3.02181443524495    9.58223206159321
S         0.96308514346161    2.13312235277192    9.95148960672519
S        -2.61297655400977    0.91188856526950    7.65624189791703
S         0.46154470533130    4.07931415844997    7.78195602939599
O         6.91963469257963    2.85813229911224    4.32754113820165
O        -8.33163471200486   -1.17899023196617   13.18608154729654
N        -5.09606545301045    1.38646183029974    8.42123648015465
C        -7.61173586155284    0.44833123049724    6.17931062305361
H        -8.12238808899651   -0.18218788440008    6.89372208104138
N         2.78549548731485    3.79385420563014    9.00394028932329
C         5.62235432052384    4.61556415566445    7.20243271389520
H         6.01378893039162    5.23428324442845    7.99736351246680
C         1.53155696610877    3.37789331062946    8.92012143599255
C        -3.82509797018277    1.73814051493806    8.54087633939520
C        -6.55383193027453   -0.00456595538027   12.22838351909177
H        -5.96230092561469   -0.34026646908585   13.06497948923879
C        -6.27648917173796    0.76971026991434    6.37932466301483
C        -6.78764441200374    1.22274227852828   10.17301889971713
C        -6.17743411614208    2.08338972846969    9.09867483118923
H        -6.92979032221730    2.34252298784302    8.34701759158812
H        -5.77650884939830    3.00180845317415    9.53232305103717
C         3.75616819555952    3.20283620702497    9.90849197330626
H         4.64843158032596    2.95422474768622    9.32527980649085
H         3.33239684431344    2.28381530087132   10.31949169286138
C         4.62875899746932    3.03928525057363    5.15102850753758
H         4.21711580400401    2.43002569348706    4.36234816027846
C         5.99218648981614    3.31054288413892    5.21254964725568
C         4.25891140370500    4.35039171107656    7.14284386691078
C        -5.53505468427071    0.27510505240955    7.59451691514946
H        -6.18506814472717   -0.35843905981177    8.20610043146596
H        -4.65730707384830   -0.30018123813071    7.29271214175304
C        -8.67261343003194    0.03047710132751   11.09504075161433
H        -9.71099814386451   -0.24983826951600   11.01441250419523
C        -7.89410581134194   -0.39519924177221   12.16528185283150
C        -6.01214934169447    0.79422549156897   11.24718245254349
H        -4.97819925714862    1.09810194693356   11.31021180528502
C        -8.28694591139814    0.92398193736959    5.06816909570311
H        -9.32509789215511    0.66582841194453    4.91901679781608
C         4.72262377313643    5.93740521004024   13.06437296781261
H         4.96214285647537    6.62981040442599   13.85758282128990
C         6.47955235450198    4.10722100301501    6.25025649872863
H         7.53785549482379    4.31165324742293    6.28515536442439
C         3.10721147484687    4.63720562163550   11.85952355323455
H         2.08888576962289    4.30848554183440   11.71433360276195
C        -8.11372139341525    0.82844159311619   10.10989449344680
H        -8.73048785648476    1.15394877725709    9.28390703705153
C         5.41559954040536    4.57357867788179   11.21704766808824
H         6.19805999926452    4.19967213045281   10.57164208928166
C         4.10661584921966    4.15549783695117   11.02254946341698
C         3.77815944202216    3.55846838174185    6.11040078775362
H         2.72080455302451    3.34797758753783    6.05174189983477
C        -5.62555680684018    1.57800571339869    5.45504862054869
H        -4.58529146582170    1.82503679392303    5.60618361718861
C        -6.30181070235526    2.05721591317779    4.34818649091187
H        -5.78816579555118    2.68447538167262    3.63506813155672
C         3.31593041760057    4.87826710866154    8.19150006520969
H         3.83887515017222    5.56794347732414    8.86099511504515
H         2.47857376713522    5.39931897664449    7.72359521267371
C         3.41390054297243    5.52513971813446   12.87414693686046
H         2.63090062138125    5.89411830363952   13.51957989996928
C         5.72312662578656    5.45792526619756   12.23692486007191
H         6.74526245150315    5.77492538452963   12.38271433352753
C         6.49078480600999    2.06054016744879    3.24994545444392
H         7.38968431028025    1.82498347850095    2.68251016845837
H         5.78787311713352    2.59916849857602    2.60650231387662
H         6.02842509923657    1.13083228776476    3.59658280012441
C        -7.63397528572136    1.73134233596443    4.15307018740803
H        -8.16161051717186    2.10490897940304    3.28816309064742
C        -9.67659274274151   -1.59200340838995   13.19216986755791
H        -9.79563585352638   -2.19383923824479   14.09164078982734
H        -9.91428815346041   -2.20312620139266   12.31535123343305
H       -10.35936593629056   -0.73728733926569   13.23646749829427

