98
CSD_code = EBOQUH | q = 0 | S = 0 | Stoichiometry = C42H48FFeN5O | MND = 6
Fe       -0.21349686663345    2.70384892668982    4.33175190290450
N        -1.88122663453881    2.65211036114116    3.17310339440446
N         0.07338900909891    4.65516209224121    3.81296285126901
N         1.58477785017840    2.69652891507959    5.29420565370180
N        -0.38252053377695    0.70545870071600    4.65544062694448
N        -0.90430884547359    3.19713141225310    5.68171333466045
O        -1.15975515462272    3.75720566589854    6.67167016532311
C         0.86718269049629    2.26809588302233    2.66057409622830
C         2.04812502619702    2.92703315985362    2.31424288432658
H         2.42993818470733    3.71423077469118    2.94624470231996
C         2.77734764545505    2.62058027201019    1.17663736795783
H         3.68829014970582    3.14765657846794    0.93451968030777
C         2.31904814169884    1.61964456117613    0.34573486827790
C         1.15809837827158    0.93301780981142    0.63409892585883
H         0.81463787289012    0.15261490140725   -0.02865461682148
C         0.45340011161702    1.26520533401379    1.77996197752951
H        -0.45177764155716    0.71066018645012    1.97936255896386
F         3.02168796493433    1.30531112155714   -0.77402307858744
C        -1.84058366793657    4.94385048953312    2.33619284518293
H        -2.35941744644710    5.65190051735607    1.70868120602163
C         2.07570207079049    5.08223743491102    5.14141299085325
H         2.76163394494941    5.85222691188615    5.45959803887626
C         1.71714853660532    0.32743441515521    5.83951557919446
H         2.32351083564113   -0.42462740852760    6.32016568471489
C        -2.54665975085882    0.34253819035256    3.59023162804923
H        -3.30928236429153   -0.39495693488245    3.39273564129712
C        -2.73039434486141    1.60162519853632    3.03889309201562
C        -2.38972933063971    3.67651597086162    2.44142553676180
C        -0.70555979145410    5.39732830641457    2.98989559134012
C         1.04397835462763    5.46961716761908    4.29901813332787
C         2.34537283009608    3.78805057887787    5.56159682678536
C         2.20647543185251    1.62420488118954    5.84061283575051
C         0.50647455024364   -0.08597154415671    5.30847856102632
C        -1.44315743953395   -0.07262775841291    4.32018431647279
C        -3.84128228387486    1.97233037063872    2.19112698734411
C        -3.62291202609096    3.26309014560700    1.80932669688357
C        -0.20292925759121    6.75202337475081    2.93068181075190
C         0.87977950786887    6.80058832611347    3.75836658072624
C         3.51735722041702    3.39411339816853    6.31136139061236
C         3.43762799212130    2.04250693405568    6.47364957857700
C        -0.01082084016781   -1.43331273510987    5.39992250906999
C        -1.23174609971372   -1.42255338661349    4.79273372858237
C        -4.99334273867554    1.08543832317624    1.85551560167981
H        -4.63419668506011    0.07629325085664    1.64019192311164
H        -5.49129980255359    1.45826318232425    0.95852407108083
C        -6.00465358776037    1.03102239778758    3.00338550378022
H        -5.53243496226820    0.66810093666291    3.91325818799511
H        -6.83090418812089    0.37008985826981    2.75074379601435
H        -6.40357364759975    2.02288936185630    3.20202958638418
C        -4.47979773692387    4.13551238776109    0.95451807850161
H        -5.10494364573627    3.51441528691695    0.30998832720226
H        -3.85129457488565    4.75409124817822    0.31003680486685
C        -5.37860622774392    5.03548793964150    1.80648684278345
H        -6.04472242566251    4.43218320476235    2.41857437317252
H        -5.98204149514220    5.68043783852386    1.17145675356925
H        -4.78001267646773    5.65678907813309    2.46862643206364
C        -0.77613667548198    7.83879182008013    2.08450276813676
H        -0.45742781170233    8.80909852434556    2.47016269247650
H        -1.86736774757284    7.80637466532073    2.12825966612017
C        -0.32130608223197    7.70306406438259    0.62915249696743
H         0.76096969294719    7.78338966272904    0.56314824220654
H        -0.76432689933213    8.48642638588533    0.01797570362145
H        -0.61276508667404    6.73607459125875    0.22604959492541
C         1.78604599094727    7.95266327978674    4.03730357210217
H         2.07213340817028    7.95239951815998    5.09160786930929
H         1.25934141178160    8.88770138406405    3.83696319974867
C         3.04413802949090    7.89119379476664    3.16724008336350
H         3.58533708373749    6.96422818634261    3.34159410469792
H         3.70281990192033    8.72739978504496    3.39138355788166
H         2.77678869990460    7.93322973377305    2.11422111975778
C         4.60578326028358    4.31999057116929    6.74065798732619
H         5.15570353879865    3.87616055912332    7.57273729071030
H         4.17575692639587    5.26097045769128    7.09140599343819
C         5.57760619272321    4.60017346411022    5.59142683534861
H         6.04473087300201    3.67635119090962    5.25911256780665
H         6.35755972999673    5.28760574519204    5.91146751787314
H         5.05319294635758    5.03689191239691    4.74477198049615
C         4.41309510484287    1.12503942983924    7.13116295198634
H         3.87895254496137    0.38060727531688    7.72639358731465
H         5.05206135455074    1.69485761396096    7.80850369232825
C         5.28722760852438    0.41495608011997    6.09432838830796
H         4.67186178995767   -0.14855398862572    5.39696886385357
H         5.97860036650614   -0.26769742864641    6.58365189342608
H         5.86269267902581    1.14108265228540    5.52536771526289
C         0.67586434259067   -2.56753686174501    6.08400547064161
H         1.74688000318044   -2.53368831637601    5.87226024165825
H         0.29164771569477   -3.51371629874765    5.69793715547921
C         0.45328945777482   -2.51738983243223    7.59783397381447
H         0.81710041994544   -1.57760765510976    8.00677689876632
H         0.97534690810370   -3.33738642040508    8.08610870475436
H        -0.60681332901638   -2.59812481575154    7.82593640135879
C        -2.20747021492227   -2.54183743502810    4.64590507154080
H        -1.68960701181452   -3.49523718746643    4.76580314377850
H        -2.64345550284097   -2.52506612093294    3.64421627680661
C        -3.32432994930887   -2.44408169441791    5.68819446968260
H        -2.90987772722893   -2.50313869828708    6.69176518191581
H        -4.03630835561209   -3.25641625571426    5.55958509097983
H        -3.85283517417764   -1.49818713401946    5.59575861403397

