85
CSD_code = EBOSUJ | q = 0 | S = 0 | Stoichiometry = C32H50N2Pt | MND = 4
C         2.84971385347162   -0.45899340117303  -11.23703986867888
H         3.72046393235840   -0.02018008476575  -10.74593365435614
H         2.39640365988454    0.32808404318801  -11.85341001631983
H         3.21502283817617   -1.23998715326131  -11.91009601313401
C        -1.61293019360353   -1.15079914757596  -11.00278227041297
H        -1.82979332080211   -1.11910873109979  -12.06795791574770
H        -0.68709893106859   -0.59109679319306  -10.80478864813938
H        -2.43272678038865   -0.67818629595901  -10.46708006564237
C        -0.74068209292720   -4.56386466208139  -12.01564442567603
H        -1.70289529853591   -4.47421373900357  -12.51745079878568
H        -0.84016025430267   -5.33147705253253  -11.24653831118889
H         0.01025173695708   -4.88700162870739  -12.73267025862869
C        -0.35444565757553   -3.26645023420659  -11.36665387595145
C        -1.43426424346839   -2.60561858115688  -10.54146257460689
H        -2.36947158431607   -3.15146019387284  -10.70131720889605
C         1.70117819202178   -3.18828985993291  -12.44633912974940
C         1.67846966137726   -2.60007997341989  -13.72139776525563
C         2.53133002141164   -3.09143235066009  -14.69667938561005
H         2.50994037442240   -2.66405432665819  -15.68661029164537
C         3.41311395188384   -4.11958204745570  -14.42204406047623
H         4.06972951359165   -4.49173417439409  -15.19439186300288
C         3.46357325474813   -4.65396936075557  -13.15076246927156
H         4.17393848494067   -5.43620885783434  -12.93245523943096
C         2.60945767106581   -4.20772995095638  -12.15165922063857
C         0.74504882980477   -1.45027846054723  -14.02542654728620
H         0.44927304357041   -1.00083357798510  -13.07309450836697
C         1.42452455040279   -0.35777672095880  -14.85208892497270
H         2.38073977580504   -0.09008068470143  -14.41028819073900
H         0.79494081277133    0.52938501756821  -14.87516481980744
H         1.59039528617417   -0.67661308122621  -15.87823219831095
C        -0.50744367290452   -1.95421195365898  -14.74732464365910
H        -1.04314315398669   -2.68061757578295  -14.14065354329513
H        -0.23479722586159   -2.43221111281097  -15.68629380960906
H        -1.17657168566388   -1.12413530791480  -14.96634887074283
C         2.72907759940169   -4.76396172509811  -10.75469356124949
H         1.87562061766555   -4.42158961804019  -10.16111268191623
C         4.00442180398555   -4.19555766894744  -10.12676995539428
H         3.91013021076611   -3.11488644178465  -10.01937380714324
H         4.86679460698291   -4.40717560849220  -10.75490533742012
H         4.17547726261398   -4.63719470842143   -9.14843509713613
C         2.73357480640317   -6.29306017071438  -10.73660200263837
H         1.88485421718994   -6.68881828107381  -11.29199224244347
H         2.67195762175691   -6.65583821317248   -9.71235707486317
H         3.64494516024456   -6.68934882009674  -11.17643779608272
C         2.12887650164314    0.15113227306846   -8.62218405069546
H         2.11817642609487    1.17318361872636   -9.01610200829486
H         3.16326842819822   -0.07623764051806   -8.34514126476078
H         1.53832755926209    0.14232078498100   -7.70221764852139
C        -2.01884898710161   -3.51629880641142   -8.23803932350543
H        -2.00033280707443   -4.53359269363609   -8.63155892919669
H        -3.04886301415125   -3.16345175239258   -8.29171525159330
H        -1.70775291613323   -3.52983394290534   -7.19565239452438
C        -1.11719362336590   -2.64316004519207   -9.06398749776742
C        -0.03436351072088   -1.75087302328590   -7.20997095156391
C        -0.95668543788473   -0.90205159926141   -6.56931061856518
C        -0.80490905513166   -0.66849260746854   -5.21181609837675
H        -1.48667030351131   -0.00519059751089   -4.70477847361656
C         0.20322679191667   -1.27636775785858   -4.48788419687070
H         0.28786110607498   -1.09909219640314   -3.42597739444381
C         1.11051918447546   -2.09438930301119   -5.12951395392381
H         1.90278892796750   -2.55185316950283   -4.55978423539844
C         1.02184037518563   -2.32518254861404   -6.49465155306994
C        -2.03432763632909   -0.18287680580544   -7.35186410495445
H        -2.34451975086181   -0.81506766367019   -8.18761119953121
C        -1.44989478793680    1.10830886853139   -7.93312378592962
H        -0.61072638427270    0.88259540892481   -8.58805357241911
H        -1.09506961369950    1.75438255567518   -7.13328839112444
H        -2.20569348144392    1.64388393433078   -8.50444873130270
C        -3.28849077295623    0.11570713697583   -6.53000537512064
H        -3.62406813196164   -0.77223162588263   -5.99741534820998
H        -4.08857912586054    0.44343591690290   -7.19147964263375
H        -3.11105292329850    0.90990029974692   -5.80961440314679
C         2.03510413114556   -3.18551016776329   -7.20765344626750
H         2.10842799041107   -2.81387828632081   -8.24649920445344
C         3.42401084135364   -3.08177808696689   -6.58014950336821
H         3.68328535830320   -2.03939250893350   -6.41527146990712
H         4.16716292218096   -3.51375934655016   -7.24463093572459
H         3.47419305404603   -3.61445791238630   -5.63264467169873
C         1.56177148593116   -4.64150800045294   -7.22126600349925
H         0.62902788334370   -4.74660641772973   -7.77180691394139
H         1.39719754847448   -4.99137134043849   -6.20282511234723
H         2.30894840911756   -5.28035346328678   -7.68520233708193
N         0.78040517859239   -2.70404366939910  -11.48708734276946
N        -0.15696099307305   -1.94824477223474   -8.60075044668467
Pt        1.41344389664553   -1.18886377477405   -9.98586126889198

