47
CSD_code = EBOTOG | q = 0 | S = 0 | Stoichiometry = C20H18FeN6S2 | MND = 6
Fe        4.24074792804462    9.93734448940577    4.19463229503768
S         1.71230260708521   10.01093546117536    0.34889416459862
S         2.74615285966758   13.93134250856246    5.62778072163974
N         2.81785511899412    9.49566363458016    5.36667749481290
N         4.77076171543518    8.14349932272652    4.31852190763497
N         5.79455992672745   10.51990257430829    3.29111226514923
N         5.32193846330520   10.23686740020847    5.84245483640554
N         3.24967812293962    9.63088964942811    2.60219851870035
N         3.61132817353432   11.72481700984398    4.21520392556423
C         1.65814507500645    8.92319033518559    5.05758559633410
H         1.50820060353155    8.74335350018419    4.00433835590258
C         0.70528338999818    8.60281688695357    6.00617057098907
H        -0.22558639091570    8.15064351859063    5.70502378688086
C         0.96824955456261    8.88153359270738    7.33894023294621
H         0.24975206306734    8.64693416329894    8.10869564444022
C         2.17540260021482    9.48310493450994    7.66188716383469
H         2.41361978457169    9.73259645448228    8.68451396189907
C         3.07183151499316    9.78348523582926    6.65011283527936
C         4.35877561183348   10.52044930352157    6.90747474056413
H         4.11461806976693   11.58716465422521    6.88265320695747
H         4.75795723614139   10.28622786926382    7.90332275356916
C         4.28098408953767    7.13124945918924    3.59562690877110
H         3.70115120753923    7.43051701739077    2.73672110513836
C         4.49126013786071    5.80578221273881    3.91471492333092
H         4.07203443088769    5.03086783563322    3.29372987792675
C         5.24122278091401    5.49146675716207    5.04010574584276
H         5.41792586268580    4.46726934549761    5.32715737662843
C         5.76422083242325    6.53795875652140    5.78686098535215
H         6.36285546142055    6.34702618063775    6.66469482527797
C         5.51559613108977    7.83926813298821    5.39262326911760
C         6.10345389136398    9.02240472190279    6.10772000091812
H         6.18340696109242    8.82404355774221    7.18359776542055
H         7.11831964194174    9.16456184851099    5.72107555621133
C         6.09897845057919   10.36759542649114    2.00552113489621
H         5.36519452731766    9.83116664047477    1.42465720272918
C         7.25446814350126   10.87853383119631    1.44276813906043
H         7.45014110921641   10.73859754113310    0.39211410461931
C         8.14112678549343   11.57574649895247    2.24865341913287
H         9.05119596740212   11.99221524564397    1.84622717733978
C         7.82781559909660   11.73186713548110    3.59236339080406
H         8.48626190155082   12.27305265327955    4.25472674312106
C         6.64651131614341   11.19847671130403    4.07544577536980
C         6.20424137136841   11.35857685446078    5.50677913703150
H         7.05973842645935   11.43650515440502    6.19095662223685
H         5.62762664995791   12.28490807434323    5.56630101320956
C         2.58676924505283    9.86855460143830    1.66045893446338
C         3.19862504959932   12.66202530648951    4.78910388690867

