45
CSD_code = EBOVEW | q = 0 | S = 0 | Stoichiometry = C17H17BMoN6OS2 | MND = 7
Mo        9.23422649650182    7.94291533038430    1.64773792145878
O         8.77292228569578    6.41489076141231    1.27960442140465
N         8.37800105331265    9.44044151026706   -0.91111405862589
C         7.35558807059085    9.57739465769458   -1.76320592855853
H         7.46097754877128   10.12975885166971   -2.67502419541337
C         6.26140922372452    8.91979047526913   -1.23517069654315
H         5.28344393071572    8.83141268996826   -1.66018402679928
C         6.71371986893440    8.40124353368218   -0.02555176518449
H         6.19574596061905    7.81952084356123    0.71522563690753
N         7.98853429317719    8.72765008866691    0.14912310689106
N        10.73168363663581    8.72986109343888   -0.93229218332426
C        11.64469237811663    8.28189701234883   -1.80187262739613
H        11.84654168967016    8.80376787649291   -2.71538450705998
C        12.20151358969775    7.12699646584683   -1.28759910503757
H        12.95998274409359    6.51389395515380   -1.72768181691636
C        11.55894410454645    6.94052202205754   -0.06722642588328
H        11.68156504093125    6.16723587611174    0.66963526702764
N        10.68015526522083    7.91654271486597    0.12570970898538
N        10.05193136742772   10.69385484520496    0.35379511742852
C        10.43750644025912   11.95623041268383    0.57229328203968
H        10.63371477419664   12.62444813533170   -0.24163130303594
C        10.50993804696286   12.15621953287483    1.93554605844397
H        10.78594805918942   13.04936815689261    2.45570282254021
C        10.14261130420328   10.93317912576565    2.48637201678363
H        10.06960908266580   10.66358778953505    3.52584486235819
N         9.86881612313743   10.05910118433410    1.52053664661779
B         9.81938946989393    9.96220727577289   -0.96820742336588
H        10.01655201432889   10.64343071709311   -1.91029254901387
S        10.79981767922491    7.88321485987412    3.51909690247651
S         7.92984524808164    8.74531137573720    3.54450473329306
C         9.12333276264480    7.50069524007410    3.77390392374196
C         8.74628130190592    6.22792861415881    4.37622985991536
C         7.40600927647065    5.84063935373083    4.42670978464773
H         6.64589446187915    6.51310570681215    4.05189277892259
C         7.05258163422138    4.61232705379592    4.94628347636980
H         6.01041281823089    4.32700080533701    4.97065154610759
C         8.01496268378245    3.73755258940002    5.43615867021021
C         9.34909954202881    4.12934070732727    5.39240135832818
H        10.11088489656848    3.46366134687153    5.77273043695913
C         9.71466878868588    5.35244052231679    4.87145070220588
H        10.75451377995634    5.64801994157535    4.84753898693853
C         7.63459880380276    2.41066818624282    6.01789306965447
H         6.60376650083280    2.16136257025461    5.77954959560383
H         7.74022032797226    2.43383262309073    7.10284167729877
H         8.28474563049284    1.62493556901871    5.63757424060231

