80
CSD_code = EBOXUQ | q = 1 | S = 0 | Stoichiometry = C40H34CuN2P2S(1+) | MND = 4
Cu        0.79887733750690    2.66159832239523    2.57553173635888
P         0.15605886190332    2.09753561399950    4.62707779024268
N         1.17093354279684    1.72897185223453    0.87921396241901
N         3.11398358040792    1.60428765657015   -0.43971567430221
C         0.91180650755058    4.88851033069204    0.00246050852866
C        -0.00367791876902    4.68071629883210    5.54163847643971
C         0.74508411149991    0.58270280823722    5.43536683848928
C        -0.97421867463912    5.46593702937225    2.09085943630068
C         0.50891525982371    3.41464397404883    5.82566757890166
C         2.52291233580455    1.84765523621916    0.77741934321554
C        -2.47482632937495    2.53169727511654    5.60820040811242
C         1.83863317383840    6.05903450380028    2.43214424286397
C         0.28885811283073    5.74784967921390    6.36727935731391
C         0.45385676582178    1.49933910501035   -0.19695881977832
C        -2.21070468017577    1.15154713892241    3.65222596439052
C         2.50681958428247    5.77871154960309    3.61999718305601
C        -1.65224465811596    1.92992347920123    4.66411674769566
C         2.39286734484401    1.37957747191294   -1.55426577147374
C         2.21128978094124    4.89394259812525   -0.50387607671862
C         1.33710557857353    3.23303034516451    6.92674420455268
C        -1.25650942012934    6.81294362089092    2.28118295420018
C         2.05771956119588    7.26724770985857    1.77364967286515
C         1.10622305902809    5.56179731265724    7.47258365910778
C         2.46299832686923   -1.08435473169055    5.62150351119281
C         0.02081800119558   -0.03943381166974    6.44819802301311
C        -1.99680907418801    4.52263710774843    2.18049798050759
C        -3.57346860838887    6.26760138228835    2.62078797510348
C         1.96412382758890    0.05585700605269    5.01821092635656
C        -3.57855660760204    0.97046616214967    3.58794919190392
C         3.36906090462228    6.71295971281119    4.16385978457422
C         2.92337272032608    8.19432773095625    2.32344009223136
C         1.02735200809030    1.34154715344638   -1.47039648803481
C        -3.29332559288498    4.92174878047273    2.44172813472627
C         2.42214863646804    4.80515492460025   -1.86662411534735
C        -2.55777749205607    7.20703153921764    2.54096105528163
C        -0.16743030064224    4.76181574826970   -0.86698685452109
C         0.52542926909737   -1.18122457647533    7.04242566983543
C         1.74345022756978   -1.70206536017075    6.63195171473273
C         3.57234816133265    7.92190160092511    3.51857694874855
C        -4.39740403626627    1.57542135897744    4.52959143585273
C         1.62850534963845    4.30915458983767    7.74832008384562
H         2.26853103877693    4.16751782253412    8.60603618098065
C         1.34344153539601    4.69698982560088   -2.73168243286784
C        -3.84548884448365    2.35200754900369    5.53502450376323
C         0.05208947770571    4.67746181485223   -2.23063528348143
P         0.69500040409638    4.80058847531293    1.80426584402154
S         3.42360250971120    2.30821220561509    2.07493949750037
H        -1.17482906101949    4.74779828937778   -0.47393954734345
H         1.56316326039418    7.47058219883366    0.83303059583384
H         1.75050642971329    2.25737091256551    7.13911671265092
H        -4.07901431526196    4.18498935442846    2.51658998922804
H        -0.61581700039939    1.42575577251570   -0.05855323052163
H         0.41490461999191    1.17109356408400   -2.33674710131382
H         3.42883380978675    4.82778593230743   -2.25759383526029
H         2.93435738397164    1.23100722183436   -2.47536932705866
H         3.04795758241710    4.98020879323136    0.17775090432045
H        -0.11429988966140    6.72487422468052    6.14673759976657
H        -2.04743396914949    3.13682763528310    6.39485861653224
H        -1.55320701826947    0.68985775980215    2.92356359397643
H        -5.46701672464504    1.43947683470229    4.47948834741540
H        -4.58362990294773    6.58381459293823    2.83057026387568
H         4.12609781564291    1.65636839457139   -0.46647833435396
H         3.09484664984592    9.13254802211109    1.81729571693849
H        -4.48501504952630    2.81867832336933    6.26897482321977
H        -0.63270166757769    4.81473717635612    4.66939044746285
H        -0.03169841262981   -1.66699379166044    7.82923058875241
H        -1.75633772631891    3.47145512532621    2.05883235283183
H        -2.77917610865155    8.25342042664410    2.68715734152945
H         4.24605437146253    8.65177230011436    3.94075703682013
H         2.35206744342985    4.82226223890178    4.10318731072928
H         1.51047622428418    4.63494323817793   -3.79607799487255
H         3.41051212169050   -1.49247357203708    5.30340577481264
H        -0.92843727137044    0.37094069649997    6.76350857212182
H         1.33788747029115    6.39619829687113    8.11668269857674
H         3.88511656153374    6.49444720881777    5.08629240601803
H        -0.46460784181401    7.54618403821372    2.23748320017619
H         2.51354642813673    0.54990432263541    4.22659571861993
H        -4.00959126513361    0.36209751305940    2.80674304637933
H         2.13128801126175   -2.59346634647835    7.10090877365886
H        -0.78767761890575    4.59860837931352   -2.90448016416390

