36
CSD_code = EBOYID | q = 0 | S = 0 | Stoichiometry = C15H19ClTi | MND = 12
Ti        0.97061364784310    8.49496220875121    7.03790403317925
Cl       -0.99881521779182    7.55340068721596    7.41132646051827
C         1.09434944848760   10.38763694882346    7.90898404108727
C         1.99750789070555   10.59305059179069    6.80086956184879
H         3.05893527625556   10.77900462641484    6.90491419864627
C         1.26897605810605   10.61807171269993    5.61897378325288
H         1.66321650770570   10.81133833192329    4.63080908233101
C        -0.09920538558089   10.44771964582714    5.93703239563255
H        -0.91922931066256   10.50988321411654    5.23258035912294
C        -0.22952745472596   10.36334383258215    7.32782804336499
H        -1.17350534975655   10.36640755773965    7.85214504544409
C         1.53240961750787    9.47035572243177    8.92399117453764
H         2.62391332812107    9.47355464421908    9.04678776284713
C         0.86211622712066    9.17183308985292   10.25651811859779
C        -0.61534066161104    9.55963594764685   10.32192167863770
H        -0.99900014827232    9.35475130168746   11.31978490897186
H        -1.19612051868480    8.97386526461656    9.61231867692855
H        -0.74441592650768   10.62151251615988   10.12299370282312
C         1.61735682893546    9.94768941933558   11.34991100884363
H         1.17431088814564    9.75430276517925   12.32433946691957
H         1.56824036392397   11.01697751235973   11.15496121526918
H         2.66377026143476    9.65113664161063   11.38672242515665
C         0.98999845603292    7.66393628120862   10.52332162577357
H         0.55000969137925    7.41264586190678   11.48608171333700
H         2.03620406525932    7.36099735623696   10.53635280410383
H         0.46630996957363    7.10785128894267    9.74208638215015
C         1.70188019855455    6.29235782068347    7.05225326670772
H         1.28143744085921    5.49328330853135    7.65103705007694
C         1.32597914823216    6.61369415396532    5.72966807414520
H         0.56591758427073    6.10463161542787    5.14802175616842
C         2.18473616866839    7.62880903845411    5.26591021429483
H         2.21466648500960    8.01843408374930    4.25574999467631
C         3.09614736453919    7.93337414546200    6.29757375505799
H         3.96770310415926    8.56704703198971    6.20294597844605
C         2.78962251000842    7.11704196364390    7.41100018046245
H         3.38853144275358    7.01836186681301    8.30748006063898

