51
CSD_code = EBOYEZ | q = 0 | S = 0 | Stoichiometry = C20H29ClTi | MND = 12
Ti        7.68853264563771   -3.74241293132314   18.29452831681872
Cl        7.90207296085174   -1.72688127229043   19.21067770533473
C         5.66394044696912   -4.09633405160601   17.95187808569063
C         6.12724936165889   -5.45669880546323   18.07857644255227
H         6.11221459929493   -6.17748674133013   17.27259487663260
C         6.44606349986337   -5.70593215163088   19.40743202551977
H         6.74740702747311   -6.65550139120322   19.82632308460791
C         6.19910458416387   -4.52827580955570   20.14980106117238
H         6.27863675818636   -4.43699260791146   21.22618544114927
C         5.66916315292788   -3.56038352805654   19.29170181110423
H         5.27074729943829   -2.61190638648163   19.61905969527936
C         6.11094938468877   -3.37386710380781   16.79386033874368
H         6.26490226244007   -4.03008779731722   15.92780243987906
C         5.59695066374668   -2.01912316065736   16.32446184335371
C         4.57516232856360   -2.27214241311767   15.20142072381553
H         4.18231852804356   -1.32824768894610   14.82903919183940
H         3.74417627176722   -2.86774979644356   15.57444290768158
H         5.03330170999702   -2.80217098295083   14.36830007287829
C         6.77635378571974   -1.21467921393791   15.76283223624654
H         6.43928459304618   -0.24113705545903   15.41253335877735
H         7.23290349309053   -1.73910200069471   14.92542847809589
H         7.52009110124738   -1.06908956778036   16.54650884752427
C         4.91421283970195   -1.18947020616570   17.41234639200085
H         4.53574965734498   -0.26541039781261   16.97832477311623
H         5.62356090974269   -0.92586797262127   18.19333097323677
H         4.07261907972917   -1.72987313829493   17.84083218518680
C         9.48569380966372   -5.10878166043854   18.67981456724736
C         8.98673012157197   -5.44030386542737   17.39204557326132
C         9.11758774850175   -4.28790789678415   16.55818914525983
C         9.73462906211122   -3.26044462377824   17.32793198620519
C         9.95149701465887   -3.76941716761283   18.63843918694729
C         9.70509627015066   -6.03544676292044   19.83992138179800
H        10.77701780476900   -6.17486431519688   19.99875454241112
H         9.26358141246446   -7.01239247846495   19.65630483926162
H         9.28510857669902   -5.62755124657794   20.76237400818228
C         8.71700447594026   -6.83005081335065   16.89300495700552
H         9.66425445214518   -7.29687653331834   16.60913896680678
H         8.07750612727600   -6.82251372109052   16.01205203336879
H         8.25338076406649   -7.45500463293135   17.65445921975664
C         8.97198780184382   -4.30252906355708   15.06388836544890
H         9.86773186041262   -4.74349777410233   14.61777392447072
H         8.85924356909013   -3.29642551748209   14.66600185435241
H         8.11655597571462   -4.89843666646365   14.74653128164788
C        10.25788034857977   -1.94595483092210   16.83099961032843
H        11.34975553878174   -1.96923901334064   16.81959453622659
H         9.94534473059184   -1.12996920576755   17.48413353866375
H         9.91060341191479   -1.73657766901705   15.82230803049459
C        10.70163661424852   -3.09070906435025   19.74507558864585
H        11.73214169672577   -3.45522964822463   19.77124958534975
H        10.24381557440437   -3.29825382673084   20.71385909517518
H        10.72154629224175   -2.01259782933011   19.59853087355135

