65
CSD_code = EBOYUS | q = 0 | S = 0 | Stoichiometry = C37H4AgF15I4N4 | MND = 4
I        -3.68493842022571    5.87519084736010    0.49671756838061
I        -1.45463323736312    3.47088679974001   -1.16895861148772
I         1.66756448946393    1.39924158348091   -0.51698712012076
I         5.21372337963507    1.78874529262603    0.38105798963607
Ag        1.94471048322369    6.33576667836133    2.74966067354380
F        -3.14171473392784    5.65062450223637    4.28416000506118
F        -5.73665522321746    6.37674800304108    4.66614333748891
F        -6.61987365994633    8.78201357065889    3.73774271977375
F        -4.89872575867780   10.46320308007866    2.45979871787020
F        -2.30581941028114    9.72781002628211    2.09672280748092
F         2.37038736657200    8.62290919548419    7.61029819118364
F         3.23911002557908   10.50313583443021    9.35774147086464
F         4.86436976443719   12.51725410186482    8.49706014251202
F         5.59669048440189   12.64051084480319    5.87266419569912
F         4.69519194429622   10.77569333511374    4.12546836758202
F         6.25651265328848    5.41520261123507   -0.28309946066641
F         8.78571883782853    4.55840752719471   -0.80783229512947
F        10.20161423171251    3.25621823541744    1.12273933488155
F         9.09536149069180    2.84454262102991    3.57806976707314
F         6.57117720114717    3.71708815324383    4.09018614744422
N         1.04346200273201    7.71297252282606    3.75834127538388
N         3.70261224450226    6.77463627866521    3.41623209443720
N         2.64867831589582    4.96432870715566    1.62202057358258
N         0.29454898469730    5.70111943593270    2.02676677239232
C        -1.26742680733948    7.26100847402303    2.98605726147709
C        -0.31613306361079    7.93070911129902    3.76829247636652
C        -0.57322679653639    8.97931002174883    4.70921284935046
H        -1.54140977599047    9.37457655205698    4.94661538388995
C         0.61876618666190    9.37690503602147    5.23039942136715
H         0.77501991122223   10.15263081238095    5.95359546760671
C         1.64229722843277    8.56755346310974    4.64329871995496
C         3.02719712160949    8.62927331890264    4.87123896320134
C         3.99188190687324    7.80174761594932    4.27271467128793
C         5.41065247196471    7.83192301420174    4.45586552570679
H         5.94429861167748    8.51785155420046    5.08343564574038
C         5.94798413537556    6.84433447146652    3.69006843065478
H         6.98829382029932    6.60439868318137    3.58942315059244
C         4.87427877030422    6.16067021733264    3.03374520957915
C         4.98888266973059    5.05680485031118    2.17720461322660
C         3.89819706283461    4.42232780271099    1.54506155595788
C         3.75970080381505    3.22306890389793    0.79570938549396
C         2.42055360301004    3.08030606491120    0.44747281579017
C         1.72168252254088    4.19531428736860    0.96404443742199
C         0.39659686106236    4.71911257316212    1.07344003712502
C        -0.87612963455431    4.61626234575009    0.46677996714890
C        -1.71642862302049    5.53285919537100    1.09021381058086
C        -0.96523046760582    6.22196454979704    2.08013560731098
C        -2.67960161135975    7.66885901609545    3.17080752647878
C        -3.57426794332276    6.82901359864132    3.83044896689791
C        -4.90154160934829    7.19259854329695    4.02778910512096
C        -5.35288562647231    8.42329587987846    3.55588240116694
C        -4.47230908943837    9.28203683457761    2.90235839372176
C        -3.14656054475045    8.90116170492458    2.72303776433978
C         3.51127325509482    9.65378245785369    5.82542211015713
C         3.15186078808895    9.61301383501060    7.17132565858751
C         3.59917749487549   10.56946149541845    8.07697398757733
C         4.43012241471546   11.59804023339470    7.63953157274021
C         4.80377531963452   11.65879842268808    6.29923060865358
C         4.34244986939020   10.69271107346447    5.41091831264908
C         6.36149129271604    4.56918983614764    1.90778821637649
C         6.95043611879945    4.77821155295660    0.66260650489827
C         8.24135534566957    4.34204015865791    0.38690217860076
C         8.96670444376969    3.67891784264233    1.37440235008332
C         8.40015144101224    3.46849662206648    2.62926697633223
C         7.10989666569692    3.92050818486378    2.88566729391154

