65
CSD_code = EBOYOM | q = 0 | S = 0 | Stoichiometry = C37H4CuF15I4N4 | MND = 4
I        -2.21129307848779    5.45960259838443   17.99397862318828
I        -5.34861716273850    5.62236207330635   16.08534709766264
I        -7.85644612796639    3.34785743200557   14.46118801998367
I        -8.09881026567166    0.88690051575570   11.73758996837591
Cu       -2.55563389239124    0.84775944638109   14.11951853207249
F        -5.04934882007860    1.27529457276444    9.41392000463081
F        -6.54362137143648    0.41333486676199    7.30776859865042
F        -7.69601009248310   -2.05471270537347    7.38630504133283
F        -7.32270863789862   -3.66398390837469    9.55237442565811
F        -5.81820809339734   -2.79160887866502   11.64430735884374
F        -0.52420696522524   -4.06934362510343   13.55229565225599
F         1.44442584826232   -5.83875619030156   12.97049851835172
F         3.91868945882653   -4.94001113858316   12.25956283524098
F         4.40055911782088   -2.25965066861579   12.12238701960618
F         2.41832691849135   -0.49662948572441   12.67780579975552
F        -1.74789753444009    1.85845288369546   19.28004491044731
F        -0.41218938965991    2.80404450096464   21.45514721692295
F         1.86405938833962    4.26387606267613   21.11622128600832
F         2.81299120081558    4.74416483434579   18.60871746429977
F         1.47182559880342    3.78377464096299   16.44568309175968
N        -2.42305403071871   -0.49708799809277   12.84999264993627
N        -0.88341344778496    0.57582977007314   14.87413084656409
N        -2.89409186199179    2.19467136225875   15.31782604660584
N        -4.22037663981658    1.29677083431246   13.49229443661863
C        -4.59474740013332   -0.25722013160873   11.70319365792406
C        -3.32335521655928   -0.79695353182004   11.85565724312456
C        -2.74893809859703   -1.77629351600501   10.99127352925975
H        -3.22573646147942   -2.18307228663092   10.12150781511854
C        -1.51712476246806   -2.07169100471299   11.47543314571862
H        -0.80199820665218   -2.75801079135975   11.06771700071084
C        -1.31961765135469   -1.27447895763101   12.64170548565889
C        -0.17859422631731   -1.27668640679747   13.43786346314218
C        -0.01092130121055   -0.41150786988416   14.51437942924848
C         1.08691550964172   -0.42618638824369   15.42507602999313
H         1.90901482065463   -1.11276948553003   15.39057630584684
C         0.87245509980200    0.56231786008881   16.32830732084706
H         1.49123519472620    0.83459959084330   17.16015125238765
C        -0.35604777540408    1.19924039184504   15.97993279371550
C        -0.90430910916570    2.28253404828163   16.65591610151694
C        -2.13734306378686    2.81116699766472   16.27007435512439
C        -2.84416052993018    3.96712570945439   16.68707470583644
C        -4.03502446122714    4.01707045191998   15.98203744109886
C        -4.06648743848882    2.88053728336184   15.14706613293126
C        -4.88995835296684    2.26838415239916   14.18637740877157
C        -6.22292120958822    2.29678490047795   13.72550293238857
C        -6.32009464070373    1.35697461497893   12.71298452204808
C        -5.05258947573427    0.73899967150199   12.56692245102788
C        -5.42142661417308   -0.73559005319754   10.57402757558960
C        -5.61318199504531    0.06564237363242    9.45096130229630
C        -6.37641013627891   -0.36726934506323    8.37262093092185
C        -6.96306198427687   -1.63042566382556    8.41096593150661
C        -6.77219894237479   -2.45245983366003    9.51924669847469
C        -5.99913928607388   -2.00187568174166   10.58443701322487
C         0.89916823911176   -2.24020195221218   13.12841795206400
C         0.67749193668649   -3.61506929811461   13.18977575140925
C         1.68433571741693   -4.53046367188087   12.90036467462106
C         2.94928344519469   -4.07318214186081   12.53862878408076
C         3.19403274205630   -2.70367992380439   12.47066972685148
C         2.17282198175350   -1.80589669721151   12.76471902299835
C        -0.17144543688532    2.81806585647547   17.82331081327186
C        -0.63200376607007    2.57269748587641   19.11481770071954
C         0.04402512876743    3.05375672102032   20.23019287295115
C         1.20935805364805    3.79756211165981   20.05744477691735
C         1.69346119927388    4.04339002908897   18.77467731857369
C         1.00508835504013    3.54632258641361   17.67268518532016

