100
CSD_code = EBOZOM | q = 0 | S = 0 | Stoichiometry = C51H39BFeN6O2 | MND = 5
Fe       -4.18219477961206    5.63714860478677   17.02720078790163
O        -4.43345649047889    5.74190830657926   14.85432705233165
H        -4.11319522963819    5.27171700607654   14.07624528542532
O        -6.10993212545354    5.90666287635994   16.94802398451025
N        -3.29099636027399    4.81179528112451   19.61372112563333
N        -4.14047612134924    5.62751174911792   18.98287318111966
N        -1.59188111058114    4.76275903377861   17.82733316237923
N        -2.25263919239639    5.63639098463707   17.06768328756326
N        -3.32842611022194    3.03716826213340   17.92089200398536
N        -4.14257896457465    3.64402361268463   17.05002177355585
B        -2.39362115047878    3.88497217563879   18.79094073590087
H        -1.69562689354501    3.22402136803438   19.46624341831994
C        -3.53552683929360    4.81877908114157   20.94253949042477
C        -2.75824518906656    4.05479139612400   21.91345181805702
C        -3.41164996088456    3.29611417489156   22.88150321412259
H        -4.49160346569506    3.28399819055149   22.90450556293565
C        -2.68719678552981    2.54884960385335   23.79177913040191
H        -3.20432333033923    1.95768184962656   24.53368271564529
C        -1.30295512283519    2.55130091627709   23.74856284471329
H        -0.73806968759715    1.96030720524714   24.45449725888102
C        -0.64517651338693    3.32005891884194   22.80220157510206
H         0.43438573836346    3.33368091284779   22.76973890526553
C        -1.36489572585771    4.07332117964018   21.89460426628835
H        -0.84903398705617    4.68408269355143   21.16975882467377
C        -4.60463947386759    5.67253572562490   21.16100384367585
H        -5.04353817901710    5.93499617342334   22.10208554522265
C        -4.94612826821769    6.17277189226076   19.89730286004293
C        -5.97256748066027    7.15340490215824   19.56763641777688
C        -7.23589100303263    7.08227002931685   20.14486997120917
H        -7.45836024646161    6.28773163855123   20.84180725015693
C        -8.20989306423212    8.00326660965312   19.80498004879249
H        -9.19325867572230    7.93354127761610   20.24782664170744
C        -7.93319490949155    9.00635454417771   18.89177734402431
H        -8.69907202761445    9.71773957198546   18.61909053659374
C        -6.67039529199897    9.09609866927179   18.32823340188523
H        -6.45029171988633    9.88286205586828   17.62092641549679
C        -5.69569099975036    8.17979125097143   18.66887002879266
H        -4.69869756226701    8.25481844406840   18.25430846367086
C        -0.25785620668196    4.91174633328750   17.66668365750066
C         0.73429026704229    4.08784467903354   18.34984404487263
C         1.81803217405444    4.68689110237855   18.98677976715476
H         1.91585645027358    5.76270069711519   18.96783889394230
C         2.75021454736998    3.91453317899791   19.65484099230384
H         3.58362322696044    4.38938188760780   20.15200684552379
C         2.61293642950381    2.53690083919878   19.69418082167871
H         3.33697788851981    1.93601127185077   20.22441372006947
C         1.54890461636784    1.93206227250027   19.04525557562490
H         1.43934169384396    0.85774058673366   19.06404147426854
C         0.61887016658105    2.69937474429718   18.37052204546370
H        -0.19844538860618    2.22341795377191   17.85166954465635
C        -0.06444993113049    5.93907645998614   16.75868015328007
H         0.87330196713829    6.31920674557852   16.40838907329089
C        -1.35111997693661    6.37031860693055   16.39991081236995
C        -1.73128731931461    7.43564750825312   15.48730226495615
C        -0.88765598951415    7.82199266550260   14.44561286269931
H         0.05998335101579    7.32137177050527   14.31454022594767
C        -1.26598025211835    8.82408021928897   13.57206766134490
H        -0.60486454273596    9.11069813484866   12.76701270285663
C        -2.49031677804430    9.45558770935616   13.71872481999155
H        -2.78662041932870   10.23183342535356   13.02921933010748
C        -3.33222766328670    9.08893072691995   14.75732559175713
H        -4.28671940232680    9.57919306056878   14.88047930501788
C        -2.95199531255062    8.09535887806406   15.63701917922956
H        -3.60225996941268    7.82479651147385   16.46604755897522
C        -3.35942344025866    1.70007088501209   17.74213806342926
C        -2.60214722314134    0.75625952061230   18.55851941000416
C        -2.61975079329832    0.83994947662417   19.94918960487307
H        -3.22399200767358    1.59304193701611   20.43025166720554
C        -1.87391684647342   -0.03949372653726   20.71020212618532
H        -1.88711027417010    0.04474679973650   21.78685041763719
C        -1.11344056435504   -1.02141095019137   20.09643887945245
H        -0.52739023387623   -1.70517624909427   20.69279576182453
C        -1.11301980377199   -1.12935987711039   18.71569223287718
H        -0.52916724695821   -1.90003194163601   18.23328415549353
C        -1.85323988503856   -0.24756663208251   17.94979738779246
H        -1.84341636415250   -0.32255931464537   16.87193230975427
C        -4.22851262721905    1.44497455065551   16.69299552738886
H        -4.50938048424347    0.49189099817881   16.29314479050432
C        -4.71008779723160    2.69905190357241   16.30076426074236
C        -5.70574853571254    2.95964677666738   15.25349333745719
C        -5.37681456990625    2.78510526972372   13.91286214670059
H        -4.37224474580307    2.48360178753586   13.64661124182222
C        -6.32525873676052    2.99852812551131   12.92868211821746
H        -6.06061967569183    2.86913392273718   11.88874642809759
C        -7.61242601533056    3.37337260426782   13.27570398634116
H        -8.35204016486832    3.53926876726265   12.50698902831814
C        -7.94798420954568    3.53501151012466   14.60860233403440
H        -8.95064628651723    3.82774472832976   14.87983462729898
C        -7.00018003511093    3.33263221929200   15.59563326466181
H        -7.25062800659260    3.46956960109139   16.63557967875869
C        -5.75403240428554    6.15984655579596   14.62866202835550
C        -6.22711982167948    6.44293257514961   13.36871215252321
H        -5.58051877090501    6.31503732862659   12.50993461203822
C        -7.52709770609699    6.90304876756434   13.21475632269329
H        -7.90202377250380    7.13751113043423   12.23081167608527
C        -8.32977803397228    7.06038304392855   14.33281255968920
H        -9.34002291770784    7.42590878514170   14.21561610649689
C        -7.86796484522592    6.74804322226794   15.59448437108689
H        -8.49870830553470    6.85335673764363   16.46386925444309
C        -6.56214617508602    6.26630302289618   15.78654703091113

