44
CSD_code = EBTFEC | q = 0 | S = 0 | Stoichiometry = C13H22B2FeN2O3S | MND = 8
Fe        4.54800609651414    2.38027067151884    2.13688702180599
S         3.92306583212119    4.56242139547696    1.15912467232393
N         3.61572005215471    5.64839513804054    3.75303974374102
N         2.38543618747605    3.12370632854929   -0.71312962708222
B         3.33844958230739    4.55901272202317    2.93371582254157
B         2.67337183359876    3.26902639519945    0.64461531201222
O         6.76307808506385    3.28333719483638    3.83302011245170
O         4.75737713164953   -0.21941691503582    3.37986959241587
O         5.58128443615642    1.11397972824744   -0.29556999803526
C         5.85510175003736    2.99563588741774    3.18762845891925
C         4.65442568990903    0.81996199976473    2.89620782813139
C         5.12133757369374    1.63751323497650    0.62037527550303
C         2.69057512571146    3.15761245757474    3.14883600497969
C         2.29220407441234    2.50275793732310    1.94753576837958
C         2.31242001200802    2.62212997358166    4.51931148105504
C         0.90250294841183    3.03535149969728    4.95718887958753
C         1.33657252220514    1.32851739007588    1.97946220097876
C        -0.09118689938327    1.79008600227637    1.66841549677209
C         2.91572368825431    4.01327132694500   -1.72809546793887
C         1.70662496855647    2.00927723117810   -1.33811454746991
C         4.44111334564238    6.76396278476230    3.33297388803666
C         3.26485904552967    5.78023221679196    5.15112155842964
H         3.04084877104193    2.99171940715312    5.24301208254115
H         2.38542377468723    1.53314955318638    4.54252752450088
H         0.79201938431343    2.91889056787164    6.03379028623096
H         0.70094978758085    4.07292400834968    4.69635725985863
H         0.15107911372343    2.41614163138198    4.47678682981591
H         1.64241503995958    0.57404257809034    1.25127467996235
H         1.34481137740414    0.83979548166127    2.95334850372543
H        -0.77421767204265    0.94290481957371    1.68441717036570
H        -0.14381284553454    2.26182941419504    0.69101526317678
H        -0.42579898180859    2.51820356944297    2.40241934600633
H         3.31654660491676    4.91550320265311   -1.27477718681898
H         3.71432061723627    3.52052139430743   -2.29186352391588
H         2.12084930128890    4.28959951748635   -2.42619480731428
H         2.38237525131300    1.51806944320623   -2.04570155007334
H         0.82954106864701    2.35797000128613   -1.89355711471420
H         1.39474814706013    1.27801226273091   -0.60433311719319
H         4.66447486976024    6.69554032659600    2.27216297240166
H         3.92294317068322    7.70735532070020    3.52678728295261
H         5.38262133038271    6.76658482512642    3.89047600265246
H         2.52282423582770    5.04635958893652    5.43716982172722
H         2.85580822013571    6.77810270967054    5.33444346002023
H         4.15156635138820    5.65603777517391    5.78181933655236

