57
CSD_code = EBUCAG | q = 0 | S = 0 | Stoichiometry = C26H20Cl4MnN3O3 | MND = 6
Mn        3.99846262912383    5.63365486997204    4.46873878616931
Cl        5.02377234702606    2.26062221597646    1.03612376798792
Cl        2.56467755702230    2.05339254852570   -0.86695881833947
Cl       -0.04657779332401    3.60291317025505   -0.24188715018491
Cl       -0.25414772785751    5.33716292079161    2.36044873186704
O         5.65612687572654    6.40767038949433    4.71182956462123
O         4.43120116613098    4.04415336826908    3.44670360631484
O         2.26069094901514    5.13153944437574    4.04344583708774
C         3.49462013614064    3.86197083425120    2.57723282018537
C         2.25437475335748    4.52529285644485    2.89370805774472
C         1.27692586939817    3.67673454100053    0.85608697961421
C         2.45524088891455    2.98637973953925    0.57360672476139
N         3.16600959576506    7.29843487397118    5.49261034946839
C         3.55068472861178    3.06546307400834    1.42894068011034
N         3.69407469037847    7.08605713346066    2.84178400177278
C         1.17529849299996    4.43362046203789    2.01845378431558
C         2.09976988273396    8.74276847639952    2.22126633996653
H         1.28620190739177    9.39037779048639    2.50799524451630
N         4.08682482820331    4.85210007939962    6.19749563233108
C         4.18156687324172    7.08213564966880    1.60327659508700
C         2.16558789503101    7.86367463849943    4.57877453080271
H         1.85073511241435    8.86710986129129    4.89991982135720
H         1.28397975681725    7.21394751789160    4.56924557339047
C         2.58256519263888    6.66586794443550    6.68505451406912
H         2.38291808532808    7.40005434194200    7.47649726808427
H         1.64070133518503    6.18739255288749    6.39719608066663
C         6.07803509864170    6.83933336323567    5.87991551538275
C         4.10943517377113    8.36034705498758    5.89003741789999
H         3.59903947612385    9.08647466519778    6.54147507744519
H         4.42593225544588    8.87512435962042    4.97416154204343
C         5.33191826924664    7.81664454356104    6.57705206166756
C         3.62254502366902    7.88074549699287    0.60599976811424
H         4.02310028280776    7.83837699088311   -0.39441481679071
C         2.68767175288950    7.90844442871269    3.15963158340050
C         5.35588446129097    6.21115495722764    1.31337402071560
H         5.74292813652675    5.78821499990004    2.24000231678712
H         6.13669032620186    6.78895988501253    0.82156904845265
H         5.06790738648867    5.40005074859866    0.64567138256855
C         3.72930868154213    5.32523258491261    8.51371057484799
H         3.25052527158312    5.93617453644426    9.26316899155731
C         5.75429850055865    8.26186801284994    7.81523722602833
H         5.17331274320563    9.00961693929637    8.33853260079453
C         7.25911371448553    6.36284485547710    6.46531755368679
H         7.83044340092980    5.62087077608895    5.92878768800608
C         5.16267924390751    3.53388057621096    7.87457613899606
H         5.82400329610903    2.71482600013469    8.10700024575835
C         6.91367220506610    7.76469335002037    8.38735601194628
H         7.23144178982615    8.11548650392335    9.35698740754246
C         2.56339141160016    8.71114577860290    0.91498935604108
H         2.10984231981044    9.33274083544419    0.15804821235269
C         7.66336194844596    6.82222126811377    7.70208353960405
H         8.57284758352770    6.43818111816298    8.14043205801975
C         3.50530964186415    5.57832186373583    7.17519796561755
C         4.57770546194758    4.28699219444313    8.88007983771323
H         4.77173069390793    4.07681275670752    9.91965591483456
C         4.88975151928213    3.84521321541357    6.55557391010450
H         5.32168690189159    3.28351404481786    5.73670052509897

