39
CSD_code = EBUFIQ | q = 0 | S = 0 | Stoichiometry = C11H18BCrNO5Si2 | MND = 6
Cr        0.90766644739131    5.70107053992000    7.96129807466101
Si       -2.79023292964991    3.21241298503862    8.22608014101705
Si       -0.18386690489187    1.51124614700029    8.80491702323725
B        -0.24514483532584    4.13759789306527    8.16091728774385
N        -1.00339853271119    3.05312876021964    8.36167582779033
O        -0.84851807466659    6.88741774390878   10.09638744000092
O        -0.96247080697487    6.40670722573954    5.71370403207291
O         2.34576273222251    4.07423207878482    5.87499257425253
O         2.11235362163044    4.31303792026902   10.33819768687977
O         2.76601282317802    8.08268632432159    7.74600946013910
C        -0.15558005935649    6.51142780627354    9.25138213459542
C        -0.20186413301295    6.22903474736603    6.56619119145638
C         1.85895855548875    4.73685958113670    6.68607135327260
C         1.75359210392157    4.90226602350208    9.40677629431893
C         2.06030072572938    7.18035887395565    7.82632410953272
C        -3.24265245010882    5.05424666853201    8.30583074921216
H        -2.80946793173485    5.60810235912366    7.47899101259073
H        -2.89547925756415    5.51512876245093    9.22529072238950
H        -4.31942624910216    5.18813853457791    8.26056029350501
C        -3.59550257849932    2.32008681461901    9.70366463494607
H        -3.33345580452249    1.26955025524926    9.76189840325675
H        -4.67642265903242    2.38223953578807    9.62624878229630
H        -3.31138540204635    2.78477880264073   10.64318184705800
C        -3.29565621412690    2.48796348269470    6.53866075049459
H        -3.17838879097291    1.41096879182755    6.48986175043831
H        -2.70071314164873    2.92183875406498    5.73995593533440
H        -4.33680067075385    2.71175263729688    6.32809807145895
C         1.57318007892440    1.53470691509415    8.08438747077098
H         2.18690798023229    2.29536252780958    8.55641423150760
H         1.56993484786053    1.73502398651894    7.01715616189975
H         2.06445028074308    0.57817576137788    8.23604002203052
C        -0.14792397275247    1.43439123862895   10.70638030613871
H         0.37618876975140    2.29576313116995   11.11133715617995
H         0.37465693200492    0.54539887176801   11.04604046843883
H        -1.14117921786470    1.41761477226492   11.14331318828330
C        -1.12199128193707    0.04991183218554    8.02352655455091
H        -1.09411065216194    0.09551044543193    6.93932708729398
H        -2.16090382304552   -0.00489627011037    8.32771763839335
H        -0.64792952461479   -0.88064326150692    8.31929213056076

