62
CSD_code = EBUFIR | q = 0 | S = 0 | Stoichiometry = C23H34Cl2N2Zr | MND = 9
Zr        2.68996649180794    2.87718840017266   -0.78576620296876
Cl        0.77061334736926    3.73758933455176   -1.86152889588249
Cl        2.41079129378603    1.07193559387132   -2.27827931695228
N         2.64041959329473    1.59765243418707    0.93626488258277
N         1.78956435866933    3.63179720720670    1.02137376569182
C         4.36722247081647    4.62403508878671   -0.12853684849438
C         5.07531593591722    3.39830991899046   -0.28664404934076
C         4.96072352424890    2.98983086587293   -1.64517461148010
C         4.15702828523504    3.96033948814221   -2.31876111800750
C         3.80147953459766    4.97619345533318   -1.38225414851878
C         4.40251655692538    5.44263592439916    1.13126819601367
H         4.06462461008576    4.85857734582679    1.98870387028993
H         3.77341808413558    6.32542042643006    1.04904690713223
H         5.42349435635127    5.77495955272348    1.33410133691545
C         5.94007262320004    2.80423936242526    0.79072425443204
H         5.34369028173755    2.51067587196583    1.65783645770435
H         6.67412159670137    3.53972589458926    1.12702836584039
H         6.48411152624149    1.93557288562047    0.42710045039449
C         5.67797344592394    1.85176389499806   -2.32138694109550
H         6.43510773215824    2.24284638355657   -3.00399754452405
H         4.98738199364547    1.23759329239264   -2.90160937832654
H         6.17512759752973    1.21280310769919   -1.59469299855708
C         3.79173250176894    3.95203472628425   -3.77894737164294
H         2.80643321533410    4.39850560750330   -3.92820681330370
H         3.77097628480059    2.93170289715860   -4.16470960336627
H         4.51735496448058    4.52230096550026   -4.36483413467696
C         3.05227740450954    6.23484780283797   -1.72933368271391
H         3.54352206558105    6.74516707629074   -2.55950690475084
H         3.02427838268455    6.91789772610055   -0.88269848620047
H         2.02470821318112    6.01330960443469   -2.02816383421353
C         1.85381840690003    2.43976299488019    1.59949745868195
C         1.14338182335599    2.17076056207687    2.88199380583286
C        -0.13810013044386    1.62987246532174    2.88811284912357
H        -0.61238478477465    1.36654431700746    1.95241726959948
C        -0.80421779310601    1.43283396986264    4.08555263504789
H        -1.79603748597062    1.00559802061852    4.08174020141093
C        -0.20555314502516    1.78758318052404    5.28250975272809
H        -0.72789124554832    1.63435424375838    6.21483176071151
C         1.06186211306844    2.34583808504019    5.28102407665483
H         1.52883770336243    2.63191832044725    6.21179917618564
C         1.73293190408162    2.54133952680684    4.08741519622112
H         2.72331954965742    2.97475100239944    4.08437696841898
C         2.81925089383605    0.17513247967009    1.22785264059780
C         4.04536861255747   -0.26760640337855    0.41192631505573
H         3.91954806882305    0.02051253955295   -0.63251116652150
H         4.15915734522276   -1.34770665564509    0.46623231995902
H         4.94437078565967    0.19585115212159    0.81092546201935
C         1.58610010280644   -0.60797369283813    0.74768223770570
H         0.72163685798356   -0.38479929456775    1.36858327137391
H         1.77763276612917   -1.67700673682391    0.79850548363839
H         1.36172323060966   -0.34114645248769   -0.28656547978533
C         3.09386330865012   -0.12217178770577    2.71050679099037
H         3.83880603419379    0.56753637908381    3.10284612452993
H         3.47828544461603   -1.13486518541272    2.80618294634837
H         2.19385399065316   -0.04381358442817    3.31324101194785
C         1.00128438949315    4.71775485257574    1.57570167729093
H         1.40205335236783    5.64244532764481    1.14581156928789
H         1.11707617997124    4.76072450858617    2.66937314653623
C        -0.48669290738212    4.62510126920576    1.22679490860339
H        -0.60416083189246    4.50361694664139    0.15180336542923
H        -0.99228533782599    5.53667526002007    1.53605540658622
H        -0.95138747480221    3.78253025358355    1.73346521583472

