58
CSD_code = EBUGUE | q = 0 | S = 0 | Stoichiometry = C18H20N4O15Pt | MND = 4
Pt        3.50886465522703    7.67143780288131   12.13184940527408
O         2.52071179314955    5.86526979218073   12.55129053311453
O         1.63057529844051    4.21801456666121   11.52203737997597
O         0.88239178471192    4.49123588068239    9.17321433228178
O         0.74595639997947    6.26006637015765    6.90151134270609
O         1.03270410103563    9.04094474829757    7.52800913374309
O         2.38837439032921   10.61398906251385    8.93547099641101
O         2.16014700629424   10.20292649159626   11.02561492107560
O         5.08720317376665    6.96893453452285   10.08412509701085
O         5.08211203987798    8.13994124689804    8.29347173012603
O         6.65211674293403   10.09976074401792    8.64951365185552
O         6.92582539470119   12.51732171946544   10.21971845308027
O         5.46640322853224   12.65997657865485   12.57782653836232
O         3.38335339436712   11.68012778300191   13.70482508578662
O         3.57516326292353    9.57993166474139   14.04628291322070
O         4.90464121669988    7.22450875058782   13.85172518577309
H         4.49292394605898    6.41248921205268   14.17193138488486
H         4.59267198410632    7.95149638641604   14.41652860768233
N         2.00034037202679    5.37079263731652   11.51919385445932
N         2.17702724394515    9.85640564690141    9.85552321957883
N         5.15482981529962    8.04145735440633    9.49933619232040
N         3.80611630370287   10.59713686459994   13.39614839677078
C         2.26592906213518    7.55280660159961   10.59526594925110
C         1.82434822883471    6.22490669179823   10.42819177689581
C         1.22945089434308    5.77179750077666    9.21922829491166
C         1.07900883787465    6.70002627753292    8.17639824145473
C         1.33158579534170    8.07133706971099    8.38330403976060
C         1.93139789430728    8.47085974208794    9.60320721702803
C         0.06927040911886    3.95134745390918    8.14924246554036
H        -0.29075173059734    3.00624030195105    8.55480537549768
H         0.63946523903691    3.75931410939296    7.23871712594537
H        -0.77327536087488    4.60475358512646    7.91925382550578
C         1.90035423242611    6.00866569541864    6.10936704959743
H         1.53080417241981    5.72093488542742    5.12691473760643
H         2.50153854781657    5.19777322014586    6.53234932279041
H         2.53191082359412    6.89813785985258    6.02818078177207
C         0.12982477614270    8.86126059477651    6.45311289918805
H         0.61562569691163    8.40240511279628    5.59067504011699
H        -0.18983019661609    9.86929639922355    6.19003809170560
H        -0.73200107970030    8.26057099408046    6.74768607169442
C         4.58426275729319    9.24989939240524   11.52487655696833
C         5.27014477949257    9.22172355446383   10.30466634665366
C         6.02865211757439   10.30783421861942    9.80744589714415
C         6.11538813979180   11.46395441159496   10.60383578789613
C         5.37533350750892   11.55892855293867   11.78942471594718
C         4.62787033242476   10.45643547318573   12.23587619182639
C         7.30014121628870   11.13198752730035    7.93202302331166
H         7.46875598209641   10.71333875197436    6.94029006304291
H         8.25886028969391   11.39465779587121    8.38428993369831
H         6.67322738304667   12.02058850593069    7.85883306129504
C         8.05489604554144   12.73122895146872   11.05418177615886
H         8.56462680361486   13.59839586427188   10.63869453245803
H         8.72383491358263   11.86417274358096   11.03209833470085
H         7.76589729690456   12.93327166527269   12.08726946349605
C         4.95387115042172   13.87319581621166   12.03667736282245
H         5.21871911375181   14.64505715637324   12.75549515183730
H         3.86667217614222   13.80426751440251   11.95506984478695
H         5.38843620415116   14.09926216998595   11.06136529414796

