60
CSD_code = EBUGEQ | q = 1 | S = 0 | Stoichiometry = C24H32ClN2Ru(1+) | MND = 10
Ru        2.83648135876269    7.41064872205484    7.03404172639226
Cl        0.66510790199393    6.53416602722398    6.99436939522529
N         1.88902967599249    8.89028750588280    5.77587042510729
H         0.92350468063318    8.57566853861927    5.60131265317466
H         1.80230190340929    9.72088072713264    6.36999946189566
N         2.98941158949574    6.16654415319656    5.28540251001222
H         2.06091589532801    6.18474063277239    4.84026118010927
C         2.48692182714978    9.32652212065262    4.49802499895364
H         3.53934023390920    9.56798730285030    4.67245420403343
H         2.41969458623505    8.50483164364542    3.78016682733370
C         1.75573396624732   10.53666567773791    3.96795406970177
C         2.19312365469629   11.81668086470988    4.28302072246607
H         3.09176546648111   11.94996765935953    4.86904588399828
C         1.49336077264898   12.92315250848552    3.83456651146639
H         1.84419145454729   13.91436029905114    4.07663003602389
H         3.67553471168968    6.46808805580457    4.58727515991976
C         0.34733898270567   12.75685851353939    3.07528216189427
H        -0.19704938907758   13.61944978336300    2.72456360579950
C        -0.09736492073272   11.48279234183108    2.76353857146618
H        -0.98858367816785   11.35005971909696    2.17037272495398
C         0.60218886335351   10.37592372202015    3.21059244965154
H         0.25616853802005    9.38278048751943    2.96171722799052
C         3.24664255681075    4.74509054389503    5.60297521713537
H         2.57849681629430    4.47084505425864    6.42541555291434
H         4.28605643305155    4.63028159170441    5.91715887646531
C         2.95616221386979    3.87827358544418    4.40246817931311
C         3.98012602783777    3.33570020921850    3.63951643278474
H         5.01007955330367    3.50292473891180    3.92107695850692
C         3.68522732413462    2.56653329043528    2.52635487575073
H         4.48593237738336    2.14030222049885    1.94202985943495
C         2.36721937840403    2.34397661364361    2.16639725752531
H         2.13895101829821    1.74267951175753    1.30028922790535
C         1.34099218491387    2.88831763347907    2.92194811416726
H         0.31289990976792    2.71096638513185    2.64667933419651
C         1.63357041944387    3.65395859733025    4.03577479261424
H         0.83530396082922    4.06822187744259    4.63619582023935
C         3.78367773181655    6.31183966799952    8.84351640417568
C         4.80847990421527    6.71451835890591    7.95609968429034
H         5.54699193763558    5.98389068566258    7.63936698756347
C         4.98434480633353    8.06734565742903    7.58414649257906
H         5.84452315124007    8.35610470839461    6.99205164025991
C         4.10918871878435    9.05523881649939    8.07502384041649
C         3.04681481233396    8.65753169270705    8.93169726668940
H         2.40951509890776    9.41437613970477    9.37794395286522
C         2.89409374747726    7.31267164445134    9.30901552602251
H         2.11642670968202    7.04921799692834   10.01573768610364
C         3.74603778739845    4.89885728847078    9.37357216584828
H         4.23130263455422    4.24525607756596    8.63938983992564
C         4.56579366789584    4.85413450862252   10.67010047999609
H         5.59254857840822    5.16714849393885   10.49322377804899
H         4.57603993444300    3.84096452983077   11.06153788956388
H         4.12900835644778    5.50893494298339   11.42081408788596
C         2.32602242363409    4.38595621328540    9.61508201008011
H         1.89476617137885    4.82658173449297   10.51021099594040
H         2.34433084427102    3.30856457549242    9.75218435004173
H         1.67927214540032    4.61358428877387    8.77023389300625
C         4.35705774934272   10.50498107121781    7.79355219768028
H         4.84278562087347   10.64732007606433    6.83035114754651
H         5.02405172310376   10.90218905663873    8.56061558792950
H         3.43824749475664   11.08746291424276    7.82658908902047

