70
CSD_code = EBUGEO | q = 0 | S = 0 | Stoichiometry = C23H44N2Zr | MND = 9
Zr       -0.06185566194131    2.35777327855877    3.71560575399574
N         1.60601875882826    3.47221578833143    2.96233311933748
N         1.47683457970357    1.45365029194352    2.09898581294154
C         0.63575105768488    0.54658790235875    5.32235707829177
C         0.04816413871684    1.52696122646116    6.16979336273459
C        -1.33987501579667    1.58312431899909    5.87396498032284
C        -1.61427059950313    0.64567030519661    4.85174579225643
C        -0.39573169623241    0.00340114220514    4.50603722785666
C         2.05704996734204    0.04037189076619    5.37090168165322
H         2.06770127763550   -1.05077912840128    5.40662874392597
H         2.56747056588087    0.39745079272392    6.26510815256859
H         2.63187033381813    0.35558224603303    4.49302637220796
C         0.64688198257455    2.15012581180036    7.40559775558906
H         1.73072789687103    2.06023680337345    7.43077557765558
H         0.25366647106558    1.64572022507415    8.29257237768101
H         0.38833637155915    3.20616942519402    7.49470258730886
C        -2.36355401342813    2.33471871876806    6.67771476610031
H        -3.25260071858902    2.54397656552724    6.08545960715832
H        -1.96565944079137    3.27907460550893    7.04569544317323
H        -2.67199377761132    1.74349980291808    7.54426861108383
C        -2.98205658871993    0.22667653362132    4.38749061173359
H        -2.95045461837407   -0.18121853632736    3.37839534331281
H        -3.67764314873915    1.06514370442160    4.39980140825881
H        -3.38347596797764   -0.54707497115305    5.04795264772213
C        -0.30735883792250   -1.23596443551508    3.65626849568814
H        -0.71337672735859   -2.09134790727349    4.20508768708264
H         0.72198676481176   -1.46691619821266    3.39464031431792
H        -0.88928810986557   -1.13440767966721    2.73863814354159
C         1.82832997829497    2.69940932082827    1.87277601469293
C         2.20061957123062    3.28708977548479    0.48564882917091
C         3.47259892176670    2.66842196516950   -0.11320358212022
H         4.27355272459547    2.65191557095435    0.62273270878958
H         3.80207458329250    3.26951807134913   -0.96023322644127
H         3.31787148125781    1.65499285447108   -0.46827783548267
C         2.39267036137026    4.80820647843980    0.53231517078713
H         1.59476070205636    5.26249368984868    1.11327848937392
H         2.35087056775116    5.20345349868112   -0.48209955653853
H         3.35319217367886    5.09042193262406    0.94951193211565
C         0.99287429858540    3.09794724168663   -0.45760591489738
H         0.57567660218070    2.09805930802678   -0.44964723360537
H         1.29124344402626    3.33819898358791   -1.47774150411302
H         0.20091828447059    3.78286325795458   -0.15969915791956
C         2.59069462257721    4.23695872933074    3.72158873996314
C         2.37129047987208    3.81942689694540    5.19411205518208
H         1.35614856631842    4.09099262208484    5.49290712792078
H         3.08290544282390    4.32130020072639    5.84979437109325
H         2.51400595241631    2.74106946811039    5.27936072099817
C         2.39117304930305    5.76567952508176    3.66142305357510
H         1.32922897693532    5.99002787036788    3.73431799012325
H         2.77966630174774    6.19986367959759    2.74742636348546
H         2.90561516719700    6.23523687122860    4.49722182287390
C         4.04038962109578    3.85856573816797    3.37387449593295
H         4.71954698188583    4.29112485576456    4.10603585687953
H         4.33686584513369    4.21473326865542    2.39388919619001
H         4.14835396229628    2.77464940418211    3.39333078137082
C         1.57908184353446    0.35241682740320    1.16005184707903
H         1.67669051404399    0.64885775203106    0.11246767910471
H         0.67216988896406   -0.25593408879895    1.25012014872236
C         2.79325313967011   -0.51796415502153    1.50901026364655
H         3.70885752831880    0.06363448584477    1.42607162441470
H         2.85276326162756   -1.36448247346775    0.82806700640486
H         2.71879805595366   -0.89285096238134    2.52602855727390
C        -1.53663057013598    2.17658677830517    2.03128969024994
H        -1.41075895299947    2.99979031691314    1.31273119307253
H        -2.58013855560432    2.22273558366627    2.37318733727057
H        -1.41968986185696    1.23651665746087    1.47012204072449
C        -1.07864665879967    4.29236926886124    4.26021566445639
H        -0.89520597286191    5.06490059576685    3.49633957488079
H        -0.80010309649828    4.73609748677934    5.22852439205155
H        -2.16954447116018    4.15198232406087    4.29048581574501

