119
CSD_code = EBUHAN | q = 0 | S = 0 | Stoichiometry = C66H48N4Zn | MND = 4
Zn       -0.00148290891005   -0.00793330554118    0.00378716682210
C         0.02603063708302    2.92050275490357   -0.78581209705492
N        -0.12063971456425    2.00039046368840    0.20152421266383
C        -0.44951163691190    2.68654056255304    1.32841305683653
C        -0.46576126865618    4.09622440022055    1.05606019463079
H        -0.67883285052576    4.85751098029679    1.78164194875516
C        -0.17309988736188    4.24156731980750   -0.25697231460672
H        -0.08864612885222    5.15112029249501   -0.81984775859737
C        -0.75573145198830    2.12959541627660    2.56525948820630
C        -0.75990491170043    0.76593412854288    2.84240777300792
N        -0.49564764964965   -0.23140572690286    1.95713530380223
C        -0.53094554703018   -1.39556209369878    2.65907855987696
C        -0.83598633758177   -1.12654224557845    4.03688600626115
H        -0.91823027495584   -1.86889955519366    4.80697444711568
C        -0.99637730426628    0.21327539780367    4.14647219514573
H        -1.23610517756936    0.78801449152061    5.02043564555851
C        -0.28031359265332   -2.66233070381735    2.13820927536793
C        -1.09606574954568    3.05900780617972    3.67276323447164
C        -2.42149569493584    3.45494045661675    3.85853503997080
C        -2.72630888686529    4.32002856919658    4.89677001840502
H        -3.75171067734136    4.62914135412291    5.04517752488365
C        -1.74265615769081    4.79956041843276    5.75209781825465
C        -0.43186440413992    4.39671939572415    5.54905341255147
H         0.34496284582519    4.76287426554125    6.20597700150106
C        -0.09352699274369    3.53142133966882    4.51852990538437
C        -3.48775259264543    2.94585872185644    2.93687401944190
H        -3.50781394556233    1.85675956403684    2.94026669632353
H        -3.28922082368203    3.26267418243693    1.91317669533996
H        -4.46648121707794    3.31566556471856    3.23213887723649
C        -2.10418242054055    5.73879007073114    6.86343646826834
H        -1.24082263378687    5.95554160743983    7.48736321481091
H        -2.88661971125438    5.30844010308871    7.48692458224579
H        -2.48172488822083    6.67690414901837    6.45722722862099
C         1.32717680573150    3.10210910200511    4.30770295453304
H         1.65731018559440    3.36417404447666    3.30299423138225
H         1.41668056376135    2.02087314656944    4.41048045569791
H         1.98655839953106    3.57780581544375    5.02945962050735
C        -0.10506704975581   -3.78175625426087    3.09202120265528
C        -1.14418089591066   -4.37600788601848    3.78659943449059
H        -2.15501832835390   -4.02954574244453    3.62551154582921
C        -0.89238668143232   -5.41267475111270    4.67225313160853
H        -1.71081095452996   -5.87256236525540    5.20635877884401
C         0.40370968488749   -5.85978286975524    4.87306183776815
H         0.59475721822800   -6.66697320822628    5.56489378614598
C         1.45527942743549   -5.27603231899995    4.19039801369448
H         2.46873382448842   -5.61730660371814    4.34429720305867
C         1.21176395897245   -4.23680829095252    3.29736397841953
C         2.23907468855141   -3.59758011073660    2.56844835266549
C         2.99332971427239   -2.96779249651371    1.86513033187587
C         3.81840447426313   -2.22861572455031    0.99167898037657
C         5.05487907987732   -2.72041144344009    0.57008810087236
H         5.40309086602422   -3.67206699584369    0.94502062691793
C         5.81764238087460   -1.99500402331461   -0.32458338531135
H         6.77369743008600   -2.37985716519025   -0.64893778318297
C         5.36012476014281   -0.77988534450386   -0.80952963558307
H         5.95824527528349   -0.22048584871025   -1.51378378027466
C         4.13524405903068   -0.28335033259003   -0.38985270944463
H         3.77371341703878    0.66336260540525   -0.76498962333151
C         3.36801509621015   -0.99666117276130    0.50910204283554
H         2.41365866674443   -0.60533586099416    0.84680282510634
C        -0.01869665647361   -2.93507066839797    0.79612655199892
N         0.11828741063622   -2.01592815290889   -0.19338467608616
C         0.44190692209865   -2.70257140888578   -1.32142777904360
C         0.46347518188492   -4.11190079358390   -1.04752341280928
H         0.67336616273262   -4.87355522488871   -1.77365532696097
C         0.18146234907917   -4.25620998863225    0.26799789763662
H         0.10423049175836   -5.16504984830070    0.83310945806026
C         0.74363803292294   -2.14574973649032   -2.55943831345710
C         0.75216416157097   -0.78188099957612   -2.83538039087357
N         0.49299380580511    0.21584748844568   -1.94900769434547
C         0.53810671774483    1.38091336381101   -2.64886030116407
C         0.84386480867172    1.11199257724685   -4.02655782651948
H         0.93289290080635    1.85491564960880   -4.79533840294383
C         0.99395841756745   -0.22881673850950   -4.13827231047515
H         1.23075465909683   -0.80380843304390   -5.01286625501180
C         0.29472833444987    2.64860346766543   -2.12666402553695
C         1.08002934090497   -3.07506781314380   -3.66821483326680
C         2.40423495269992   -3.47428684135307   -3.85585455781108
C         2.70570437976539   -4.33882490367160   -4.89550270169622
H         3.73012988927009   -4.65046258603626   -5.04538246232973
C         1.71991320175363   -4.81452695193052   -5.75053070621280
C         0.41040436340855   -4.40853245241628   -5.54557131215904
H        -0.36804819110505   -4.77170724271874   -6.20222413020293
C         0.07539153408361   -3.54373616392178   -4.51352227693804
C         3.47271968731342   -2.96914256118204   -2.93462927909219
H         3.49503453349950   -1.88007731427454   -2.93585134335768
H         3.27480916405453   -3.28746984064251   -1.91127693330759
H         4.45029005889040   -3.34039908539001   -3.23186807978773
C         2.07796928469506   -5.75272043413029   -6.86387134992775
H         1.21251737296271   -5.96941427627751   -7.48491151970764
H         2.85786309372122   -5.32130284580421   -7.48983913002806
H         2.45761078879953   -6.69091980733896   -6.45986664967771
C        -1.34391202606739   -3.11079235050357   -4.30074229808884
H        -1.67308961927186   -3.37123979291864   -3.29531082553623
H        -1.43086298684856   -2.02941126558035   -4.40423282178689
H        -2.00561931005297   -3.58536103738051   -5.02112029851090
C         0.13912262980634    3.77221574585473   -3.07889194496837
C         1.19115239997693    4.35339690233296   -3.76518688148354
H         2.19584417470141    3.99205217262116   -3.59838280309039
C         0.96018835083859    5.39585605690890   -4.64965076062492
H         1.78866794480124    5.84538235922686   -5.17704334739277
C        -0.32804061632456    5.86204885685162   -4.85767568440844
H        -0.50291091354267    6.67399670709547   -5.54822597365895
C        -1.39231349527589    5.29134376449516   -4.18376002440603
H        -2.39975306640680    5.64749537738495   -4.34335358611820
C        -1.16968156703922    4.24630970490540   -3.29197494317654
C        -2.21114169645191    3.61976012435375   -2.57223474823465
C        -2.97988645227044    2.99926006483791   -1.87658019499063
C        -3.82260312347639    2.26936612260088   -1.01223265045452
C        -5.06216695643751    2.77070147755398   -0.61147799823479
H        -5.39800539811641    3.72358773415503   -0.99444972881359
C        -5.84360799617531    2.05313989184242    0.27334735534033
H        -6.80203741324463    2.44525034998813    0.58153598967079
C        -5.40193085538731    0.83643584273518    0.76886394057146
H        -6.01492984122667    0.28284415767119    1.46479553383486
C        -4.17358293773042    0.33095088682257    0.37052261593789
H        -3.82442258553138   -0.61703678529539    0.75398160565005
C        -3.38752813569302    1.03641865742198   -0.51825035957882
H        -2.42981177334400    0.63873079051148   -0.83816445409097

