78
CSD_code = EBUJIV | q = 0 | S = 0 | Stoichiometry = C33H40ClNNiP2 | MND = 4
Ni       -0.08260158578546    4.95020181042657    5.24189749723067
Cl       -1.80025112884184    5.42063197300173    6.43483043229031
P         2.02535533947382    5.04996800263593    4.74524912007480
P        -0.23862927779678    3.07886337324920    6.31188119176809
N        -0.23827789530905    6.43800239099562    4.03904030871931
C         2.74070756784020    6.01624993892503    6.11752328350150
C         1.90239634341827    6.39449584814919    7.16133843110506
H         0.86797047883904    6.04870120188567    7.16795868451013
C         2.37504598891607    7.20963052043963    8.17368841775633
H         1.71921796246701    7.50190844376676    8.98041590073372
C         3.68783942263866    7.65014693701373    8.14621724811291
H         4.06122561639496    8.28610540529689    8.93545497484899
C         4.52427288621260    7.28252548860632    7.10269742599442
H         5.54522075024333    7.63544453748983    7.07993728820727
C         4.05466553066887    6.47322688469190    6.08537846197941
H         4.70139221007615    6.19636191661364    5.26445305620129
C         3.29244266995709    3.81633353977581    4.34592319761769
C         4.18053818665491    3.32567126561239    5.29799575838131
H         4.16737146610240    3.72684937818486    6.30289671160162
C         5.08466857815651    2.33660904626143    4.95515163530768
H         5.78007826465355    1.96495519376657    5.69388114591055
C         5.09882907331473    1.82086013453751    3.66918664851471
H         5.80706840762013    1.04949201862956    3.40534317270440
C         4.20069637930158    2.29041665373768    2.72345328496891
H         4.20726728025532    1.88361166897544    1.72275706926976
C         3.29532873185390    3.27809568185982    3.06168058302061
H         2.58701009244089    3.65043581821965    2.33322674541001
C         2.04331620527265    6.23449271015294    3.39719285323692
C         3.11926753964105    6.56955470152359    2.59055109995103
H         4.06026244923480    6.04693452741534    2.70180640164333
C         2.97432315636195    7.56054431402815    1.64043234297152
H         3.80197679583202    7.83068403612857    1.00262927342769
C         1.74686116635013    8.20784228993206    1.51047838245706
H         1.63348989899896    8.97739724940138    0.75939148432524
C         0.67297553047441    7.88885820019314    2.30566139821202
H        -0.27629006000085    8.38693561286294    2.17232319823093
C         0.78650903530602    6.87708883075275    3.28411613388853
C        -1.45346022301804    7.14496641486379    4.01064725476802
C        -2.56355672537265    6.53485709388662    3.40121507789192
C        -2.42815051493435    5.12072781551528    2.88304000385658
H        -1.62795291834515    4.62208131618327    3.47778974919888
C        -3.70265668857987    4.29937525127618    3.05890259267879
H        -3.50413503143227    3.25200812917779    2.83647833374766
H        -4.48676201088532    4.63956664439225    2.38654135429953
H        -4.05974472637399    4.37681154482078    4.08314838529850
C        -1.98368285349284    5.14205167563108    1.41912187653709
H        -1.85698915531592    4.12817903498134    1.04316037865416
H        -1.03899711074635    5.67171947899638    1.31470908989735
H        -2.73085780587898    5.64689002782582    0.80916279417250
C        -3.74130925620597    7.25291679967027    3.29165991535444
H        -4.59954120893200    6.81379927450472    2.80671673216224
C        -3.83529129495137    8.53539884232595    3.80409514246990
H        -4.76023163476158    9.08592266398287    3.70834848242698
C        -2.76141977167727    9.10076683124760    4.46461594073218
H        -2.86327951413232   10.08582591481737    4.89575628593626
C        -1.55974818147722    8.41910677473006    4.58667958488266
C        -0.42056521441520    9.00206638547574    5.38996237219194
H         0.42831151729656    8.31056229764878    5.35124942921463
C         0.04547668792141   10.34852899404109    4.83722370635836
H         0.87782494116612   10.72449296486337    5.42937511600930
H        -0.75639599832628   11.08244125914389    4.86835433471008
H         0.37911192412600   10.24220670768067    3.80720735424154
C        -0.84445060636204    9.12681698523596    6.85584879942698
H         0.00014516527395    9.44561434607606    7.46416855452079
H        -1.19801633840960    8.16524793422098    7.22075654659982
H        -1.64699717923748    9.85175703467488    6.96830155578807
C        -1.81412187823859    2.18526398249448    6.05649272528061
H        -1.80497071287281    1.25620515003670    6.62577964436889
H        -1.93597981482162    1.96216899868314    4.99745293828086
H        -2.63732174081584    2.81708546914256    6.38191524698760
C        -0.11352405261821    3.12739028383213    8.13581139411756
H        -0.25694235537703    2.12465040844784    8.53642211975759
H        -0.87820262882970    3.79742223450488    8.52266035262035
H         0.86862499018430    3.49908717203087    8.42486525842945
C         0.96360139784732    1.73444651443660    5.92961955637519
H         0.69800551749955    0.82157081265911    6.46063909274503
H         1.96550558101821    2.04370781330460    6.22192288141969
H         0.96670636967770    1.53956717800827    4.85814180053741

