139
CSD_code = EBUJOD | q = 0 | S = 0 | Stoichiometry = C38H74Cl2N4O12PdSi8 | MND = 4
Pd        3.66559542275255   -1.86109077618065    7.90788609044561
C         0.79383595513147   -2.27252432742364    6.89535539254500
H         1.26947873008869   -2.94325430674676    6.18909811901310
C        -0.58174757546330   -2.14246968683803    6.97406361125371
H        -1.21509820291589   -2.71641743963637    6.31755663336757
C        -1.12443329910530   -1.26758005925753    7.90699937217506
H        -2.19293462975590   -1.14363013598855    7.99294592922230
C        -0.26968205845802   -0.56351901892529    8.73500283909726
H        -0.65042613931421    0.11056498605048    9.48497905602365
C         1.10369802680150   -0.74686348253743    8.59839560880483
C         2.09659788044865   -0.10326247395117    9.42816757394472
C         2.07588324047212    0.80223574368235   10.47295927368248
H         1.27697072583159    1.31660802766254   10.96109641742239
C         3.91894607750818    1.78990828593936   11.84969401197415
H         4.87681979725124    1.35538529868955   12.14212212166099
H         3.24179763727645    1.79878775155614   12.70802419380921
C         4.12463760285464    3.20768598349650   11.30531246870860
H         4.44566587466932    3.84576915317622   12.12748214212926
H         3.16690558729831    3.58520341805601   10.94826453747220
C         5.15618411698211    3.23085113669188   10.16800243812184
H         5.40950748160631    2.20619588557224    9.89306897395002
H         6.08141292326002    3.67816797662333   10.52360777015907
C         6.99468488101200    2.06052319461437    5.44401549623807
H         7.59026717766322    2.35549486524256    4.57922094886380
H         7.67963589976934    2.02318590574045    6.29212472991665
C         6.44566050448753    0.64792314935989    5.20512627330832
H         5.78403684515687    0.68575671087304    4.33534991902729
C         7.58076394872228   -0.33022614871574    4.91229057686247
H         8.26839922313336   -0.37200186888102    5.75333559189608
H         8.13479184124373   -0.03148109067589    4.02520614141287
H         7.18286382247418   -1.32901828376273    4.75274555931174
C         5.64492801895057    0.16556349196284    6.41037004328705
H         6.29735029440780    0.07403299466067    7.27766291312061
H         5.21763729187181   -0.82333075773051    6.18728704113537
H         4.84995592146588    0.87340516152205    6.64428157279508
C         7.31598679665191    7.27240055978472    4.26132353235610
H         7.21649093719582    8.34329420251846    4.44650264392309
H         8.25682810993159    6.96752173952259    4.72209431798228
C         7.42396928393816    7.05438538248068    2.74688082148465
H         6.46665641250249    7.32788023682767    2.29502492743395
C         7.70967358004107    5.59252626027910    2.42020803120979
H         8.65553601379239    5.28703456998024    2.86205859243666
H         7.76843064165903    5.44762939451298    1.34355823213009
H         6.92551185477276    4.95680554178940    2.81811317385675
C         8.51461149293073    7.95012957741678    2.16014700170819
H         9.47950108000482    7.70897944114105    2.60096904046484
H         8.30095930018604    8.99835897624319    2.35551334777650
H         8.58567908780160    7.81053987148879    1.08380258700206
C         2.41913841344914    7.07759954655498    2.34319491064314
H         1.50319472625455    6.58772086116147    2.00967155296386
H         2.17323793480745    8.13151381192426    2.47899767022531
C         3.46599037680927    6.96128396449907    1.22883199290115
H         4.37034262028953    7.47980426673999    1.55967487733938
C         0.59079396422448    8.37986235271019    7.23502613982820
H        -0.20328360093769    8.37009101565344    6.48770337444499
H         0.12878209989646    8.09055125551220    8.17960216537024
C         1.11512031249644    9.81459690311651    7.37087086753855
H         1.93759888712625    9.80617062363170    8.09177591307313
C         0.01427453255411   10.73723319333489    7.89291702522024
H        -0.82474691797000   10.75389102749157    7.20069929628054
H         0.38699271157946   11.75319265015941    8.00276632192709
H        -0.34700171382385   10.39895444721854    8.86121736932975
C         0.16816727416677    3.36495144216634    8.40655950602025
H        -0.72796786772911    3.64155476630401    7.85059886439407
H         0.21678571717902    2.27526999242548    8.38537395150054
C        -0.00492299078649    3.82394352866740    9.86014320776081
H         0.90250212794079    3.55810034019332   10.41186687904647
C        -1.20254025624464    3.12408801031943   10.50527022336705
H        -1.31471175650710    3.43117993074274   11.54319756753982
H        -1.09094361034163    2.04218250419632   10.48089230855828
H        -2.11601756551141    3.37966093089798    9.97370000953243
C        -0.18508433880921    5.33546383864685    9.95666265994778
H         0.69380572937673    5.84552148277115    9.57830755710812
H        -0.34841257477695    5.63261738696824   10.99106997215008
H        -1.04296467370459    5.64818192727947    9.36665130434543
C         5.47110375746355    8.43691530310637    9.12530541102539
H         4.62538729093280    8.80245181568201    9.71014462975089
H         6.15222334606004    7.96764912381727    9.83560615924026
C         6.18218546926019    9.64718475114326    8.50302790404191
H         6.34546925943762   10.38363199352824    9.30083471573017
C         5.32174394106302   10.29589648945839    7.42395088754003
H         5.80316615016996   11.19309692208646    7.03985050074143
H         4.34999960260403   10.56946193626356    7.82585090131744
H         5.16833566086911    9.60041981219327    6.60428405705809
C         7.54380656359442    9.25108074272325    7.93981722721079
H         7.42043133732710    8.49285280682664    7.17418649040352
H         8.17927068314127    8.85035288238358    8.72607845981090
H         8.04108494911431   10.11582601570791    7.50548655836270
C         2.04841347788688    2.00036757352721    3.54465699877939
H         0.96391505973744    1.93363233732847    3.64205271677928
H         2.24679521802431    2.31737264244880    2.52023631736864
C         2.64724803654013    0.60216651068073    3.74639553388492
H         3.73378618409754    0.68865042915633    3.68463933389148
C         1.64595105485930   10.32667310767744    6.03626318044146
H         2.43724829516169    9.67806648764296    5.67457842832641
H         2.03804512432373   11.33610990325860    6.14135212057755
H         0.84858587969728   10.34070566934969    5.29657709466638
C         2.17246632492079   -0.35634577199499    2.65622762765242
H         2.59899136383535   -1.34383400703290    2.81388350305889
H         2.47350411510488   -0.00401411265087    1.67267934456029
H         1.08781690533911   -0.44359268037443    2.67203937279167
C         2.96003605577180    7.63185753615937   -0.04779578339647
H         3.71243015049405    7.57896657008872   -0.83175786894158
H         2.72667925685564    8.67867361505859    0.13233078745079
H         2.05940819978797    7.13595311344403   -0.40362734600773
C         2.28374804158045    0.04812911926466    5.11933067131492
H         2.56882997465383    0.75298362758775    5.89755260241333
H         2.79356704381571   -0.90429457399959    5.28762105711187
H         1.20770546688307   -0.10999627776503    5.17983366727894
C         3.81883401035116    5.50250531678417    0.95752182745892
H         4.22176898043471    5.03941086587312    1.85283038482892
H         4.55803619190764    5.43056645558194    0.16220254998368
H         2.93051669510145    4.95143685264293    0.65660038572832
Cl        5.71450744993174   -2.36834271568398    8.63788499951222
Cl        3.76277545983065   -3.47720280973979    6.38489670137300
N         1.61839466149230   -1.59035424438749    7.68339765462821
N         3.40404514917604   -0.44528602354741    9.24540726418333
N         4.14409447419733    0.18177818884321   10.08211730003389
N         3.36412776866334    0.93541609283068   10.83763589314761
O         2.97313364897808    3.84016247586802    8.47708955076456
O         1.89162658507540    3.27453630151063    6.12207922923550
O         2.57797805558378    4.76737609528675    4.03047434535888
O         4.54286495952082    6.57992505340681    4.20210788939286
O         5.67550343416097    7.02154979666000    6.57307698395195
O         4.85578050943374    5.69845670581220    8.73245574448089
O         1.41185991084391    5.63937054476377    7.25024222722849
O         2.14820471078556    7.11684738237746    5.18117260604158
O         3.27105779919592    7.48811039815199    7.58306928957012
O         5.37616956296275    3.45406047598994    7.36772251751750
O         4.29372046418686    2.99834057895035    4.99936350096546
O         6.22044862818584    4.79938547168153    5.24588177338638
Si        4.57215659437075    4.11405328044148    8.59437313700889
Si        5.67015128816742    3.36854376737351    5.77159618627804
Si        5.87605503734654    6.37297479088858    5.09916914914984
Si        4.80994696480348    7.11595947170709    7.93437708446416
Si        1.68631478390662    4.07204751577763    7.51405153964738
Si        2.72965972298173    3.31312912229675    4.72650285597477
Si        2.95256424815209    6.34229304263441    4.00351933107680
Si        1.91736801164271    7.10715131659167    6.78144571514158

