54
CSD_code = EBUMAS | q = 1 | S = 0 | Stoichiometry = C25H25ClN2Rh(1+) | MND = 8
Rh        5.80201998362723    1.30006881426725    3.41356997638223
Cl        6.65193430495340    1.95936312357805    1.36999804517587
N         5.94958960845926   -0.56278983262613    2.57441368677655
C         7.02439886860910   -1.33864449220067    2.68166837281770
H         7.79471505050815   -1.01461098712154    3.36848086389580
C         7.18193328464452   -2.50012328756578    1.94770371887025
H         8.07140017850798   -3.09688546238405    2.06638495614041
C         6.18243303223135   -2.86793022150491    1.05822399318783
H         6.27359793951495   -3.76411037533628    0.46524718996472
C         5.07093981664223   -2.05524557728605    0.93412208374712
H         4.29062943925760   -2.31058839788097    0.23716808707574
C         4.97802612674491   -0.89711570866563    1.70392197621856
C         3.87640559542340    0.06113651402084    1.62020849440590
C         2.76893838770054   -0.08703625578646    0.78696399144274
H         2.66780149182494   -0.95960414892984    0.16377244523449
C         1.80279392452226    0.90144095897119    0.75805930484458
H         0.94194999442308    0.80565125836050    0.11532278882900
C         1.96833526282524    2.01982891606759    1.56258476386422
H         1.24575685443150    2.81921912171310    1.56513443378325
C         3.08965222365747    2.10165674255198    2.36854767858861
H         3.25301740852514    2.97099153202352    2.99378829420622
N         4.01520848934169    1.14716076283014    2.40441540839202
C         4.90478959362093    4.87844930480338    3.27116187596696
H         5.40667467108107    4.38855087495137    2.44687785092622
C         4.25031384289465    6.08082182410428    3.07559082066113
H         4.25405608560564    6.53836384993119    2.09819334471858
C         3.59708490938812    6.69712912162031    4.13080662692539
H         3.08958352528899    7.63680222709015    3.97797824555620
C         3.60175491900169    6.10790158778068    5.38470313013448
H         3.10203000771922    6.59017654242777    6.21065300016069
C         4.25010027415957    4.90304398542957    5.58765554367684
H         4.27371117418693    4.46094543697486    6.57203630124553
C         4.90650082357579    4.27591975930503    4.53037111746351
C         5.62534752717413    3.01114152974794    4.74334649175917
C         5.13465100115191    1.84471576762654    5.44613978882624
C         6.20611893782323    0.91661303410632    5.55827173962976
C         7.36605983512243    1.49477475743802    4.92030466318647
C         7.02097231010814    2.81332303009006    4.48286895931603
C         7.97850725718346    3.82423176067760    3.95863027996180
H         8.32233547913958    3.56296209731453    2.95787207662218
H         8.85097220516264    3.86708762900033    4.61000480951136
H         7.51221366053462    4.80554053078223    3.91550909190651
C         8.76924149372742    0.98028741170083    4.98974893723784
H         8.80242748319545   -0.06465692974589    5.28832151334400
H         9.32022131372336    1.55656954610142    5.73490951097354
H         9.27977609602592    1.10222388570793    4.03569688552769
C         6.17989235088335   -0.35476477861108    6.33961960220024
H         5.17214068036511   -0.75713760514128    6.40732233726855
H         6.53115359416604   -0.15281662204382    7.35296332950217
H         6.82946331303714   -1.11183343942152    5.90546020082768
C         3.78139343958261    1.69149469233417    6.05947281420884
H         3.07522723085616    2.40206788591982    5.63645586298695
H         3.85103524170494    1.87486978895648    7.13280735003437
H         3.39257245643473    0.68376851594277    5.92224534388449

