64
CSD_code = EBUMOG | q = 1 | S = 0 | Stoichiometry = C31H29ClN2Rh(1+) | MND = 8
Cl        7.28491166729754    8.70404495293712    5.99601134812889
Rh        6.51946693107081    7.89791227744452    3.97169203586505
N         4.73052227927054    8.75488375493957    4.53115954307771
C         3.73981868460312    8.09999094152828    5.12952129737951
H         3.84517936955461    7.02604285779465    5.22479708782481
C         2.62221381114676    8.74120228847059    5.63301917009266
H         1.84504964390163    8.16905664086136    6.11246833165600
C         2.53096499079607   10.12034932079743    5.51174026124447
H         1.67573997973889   10.65351702732690    5.89595310818203
C         3.56351249805813   10.80335406443055    4.89629524962529
H         3.51975215412078   11.87505317199728    4.79923617004825
C         4.66291889772382   10.09480382303182    4.41486361445731
C         5.82893818969375   10.71331769813264    3.78485834001818
C         5.99283661110816   12.08705518532722    3.61576701568677
H         5.22453069049377   12.77105570867917    3.93457663223385
C         7.15841984293727   12.56928567466795    3.05016317952452
H         7.30448311692544   13.62966622398271    2.91839141677531
C         8.13945797203109   11.66463334562685    2.66993436307585
H         9.06850118850435   11.99740043216233    2.23695888316331
C         7.91039627186571   10.31480670271902    2.86479591228841
H         8.66354234624203    9.58602894421696    2.59697835939784
N         6.78431538471117    9.84768054904568    3.39600720766475
C         3.07056329807707    1.24828203008764    7.63622400373413
H         3.69258193730316    0.75539046440733    6.90335052287792
C         2.31760723836543    0.49497344236772    8.51715050857820
H         2.34062314614418   -0.58268288933349    8.45621362583204
C         1.53725588706988    1.11881146937056    9.47642091652308
H         0.94711074885008    0.52965105481779   10.16149010231086
C         1.51808631616265    2.50148520868616    9.55435518721162
H         0.90910337561986    2.99239136448853   10.29872223506033
C         2.27728619249688    3.25728440795923    8.68087462846738
H         2.24581614420048    4.33606771286863    8.73703529662628
C         3.06110349081979    2.63978968287258    7.70836409553463
C         3.86474595196214    3.44006852896170    6.77542836017000
C         4.56161748884156    4.56566359616523    7.21463544615971
H         4.52378181592595    4.84292121980492    8.25711411542359
C         5.32303420104446    5.31279012059737    6.33917385451851
H         5.85519265757269    6.18727783445864    6.69091456217749
C         5.39890739559813    4.96164114875496    4.98954933768537
C         4.70256230922775    3.83855272993293    4.54521638683623
H         4.77442201149433    3.53711981210834    3.51121207975252
C         3.95224454883970    3.08921466617609    5.42850080662571
H         3.41403858191488    2.22584521820666    5.06801303483546
C         6.22849780526018    5.74245349830594    4.06352705373636
C         5.85504393299514    6.19335122589745    2.73906222835525
C         7.00453173120916    6.76656780813401    2.12946758960831
C         8.09495713924033    6.69092272024352    3.07355396254446
C         7.62835512373631    5.99582088264905    4.23550519911046
C         8.48402922206185    5.52675557570737    5.35879922468333
H         8.81612820984405    6.35952983446403    5.97871962025176
H         9.37020485874029    5.03600879095904    4.95749450657304
H         7.93797927717589    4.82772783757484    5.98774665059873
C         9.53825295178502    6.96603616417349    2.79128673524004
H         9.66816602417512    7.56423849019841    1.89271799794486
H        10.05512828361198    6.01744050716607    2.63663261963428
H        10.01339848855910    7.46769707116510    3.63281168969687
C         7.10483689682311    7.21601386087012    0.70983205889013
H         6.13922145977333    7.53649201402820    0.32651657964720
H         7.44880489948479    6.37920546025377    0.09957168061290
H         7.81562341178358    8.03081053893397    0.59038383224348
C         4.53294844359711    5.97951083204020    2.07764599925711
H         3.75762786505286    5.76589003855908    2.80968688168578
H         4.60468019522653    5.13021776884386    1.39644192235170
H         4.23522652052935    6.84752866995584    1.49164833298670

