37
CSD_code = EBUQOI | q = 0 | S = 0 | Stoichiometry = C12H16N6NiS2 | MND = 4
H         7.16683035610428   10.02102159982045    1.94485848808942
H         6.54677080383101    3.32110174612026    0.56554973708930
Ni        5.88250916069653    7.75365535342830    2.22491920371396
N         7.09847453215935    9.03976172264764    1.69339419075320
H         6.19767380069517    4.08632583728085    2.11864222652713
C         6.18972666521102    4.23166314330315    1.03953455982816
C         8.04901262648963    8.68324356637691    0.85499332945859
N         6.96149417187145    6.61801755419449    1.09458354925485
S         9.21998759575248    9.69196326531200    0.26268125098517
H        10.65293966246553    7.39711997485436   -0.41810835852233
C         7.07410807018347    5.36278890965023    0.65656299471162
N         7.96529679204897    7.32492138557263    0.51296348768889
H         5.16782588302357    4.41322103371828    0.70930568947886
C         8.16318869594114    5.27903974655688   -0.21712026125118
H         8.50309397859228    4.40190603732228   -0.72831226928557
C         8.71564726117702    6.54048244902775   -0.29332634335602
H         9.59777433876831    7.80065530789439   -1.75522382611869
C         9.88207066670029    6.99791396909756   -1.07614403650822
H        10.28582505451557    6.16539765081136   -1.64560738196180
N         4.66519986582433    6.46809652651978    2.75410264055406
H         4.59501469379544    5.48774827467427    2.49963456140202
C         3.71343467784129    6.82461198540896    3.59109942187109
S         2.53886600039033    5.81681786903323    4.17788906506445
N         3.79939028596284    8.18182378728404    3.93677323196472
N         4.80476162190360    8.88848769343274    3.35757328927552
C         4.69522163751639   10.14232575954328    3.80030101285080
C         5.58242883026299   11.27259078449458    3.42139841492944
H         5.22938895607971   12.18184810810614    3.90092749000837
H         5.57249550379818   11.42373660235400    2.34306621758281
H         6.60449915105477   11.08581381641307    3.74826097214405
C         3.60650609171387   10.22542929795665    4.67452439190870
H         3.26883117455693   11.10144583580693    5.18910036460316
C         3.05106207080769    8.96503689014475    4.74613834960264
C         1.88371288050433    8.50720194080780    5.52734284016450
H         1.11118242872892    8.11398839968992    4.86767579136566
H         2.16586781964269    7.69994997568048    6.20190435636532
H         1.48288619338750    9.33794619965987    6.10144135776749

