38
CSD_code = EBUXEE | q = 0 | S = 0 | Stoichiometry = C18H15AuN3P | MND = 2
Au        2.69474288442146    9.66661767761436    0.68697990149889
P         2.62993729371677   11.56260523255803    1.84956507570372
N         2.79584628438845    8.00678440726723   -0.31933757363621
C         2.76333314492595   13.06378275171606    0.84109956868602
C         3.95311569900349   11.75222109560217    3.07693175937577
N         2.06944899808306    7.21638583496973   -0.78762106791871
C        -0.07661227540620   12.78785790310953    4.66366441970367
H        -0.09284535510565   13.40677181627087    5.54866701786539
C         1.10579502600328   12.61720755779477    3.96762384213626
H         2.01426709628402   13.09820629270422    4.30396631986384
C         3.08922219303908   15.24240302423920   -0.83583122980194
H         3.21484319608950   16.09355573000407   -1.48804194090482
C         4.01540077976060   14.21010120150152   -0.86056842647392
H         4.86011732338859   14.25495896741043   -1.53161699423095
C         1.99976862245792   15.18060073595481    0.01680543359484
H         1.27599965658503   15.98214689636741    0.02832695113285
C         3.84993779151873   13.11917210845621   -0.03051337516553
H         4.55702660857499   12.29845624137016   -0.04532233101144
C         1.82975350747582   14.09270001883305    0.85609301432116
H         0.97689089649529   14.04294306225511    1.51879170176093
N         1.44863799164027    6.40329270792681   -1.27066234929471
C         1.12403298615636   11.81798249255366    2.82811830988073
C         4.26104142965204   10.62206987369088    3.82998821339529
H         3.72304911726396    9.70059234340412    3.64377402767582
C         5.24723173321912   10.68175334010446    4.79579955813013
H         5.48463191271265    9.80504846539088    5.37950152026560
C         5.93547518336159   11.86656514417696    5.00672242315362
H         6.71009314301741   11.91322238530402    5.75740563365106
C        -1.22036413202979   11.36852897892515    3.09733296183980
H        -2.12372130542305   10.88135898899671    2.76238851103757
C        -0.04065894761947   11.19004443021296    2.39816407838813
H        -0.00900036024541   10.56032705885574    1.51746380748481
C        -1.23772219252018   12.16701844101800    4.22961431104998
H        -2.15749481095610   12.30323814683531    4.77847319569670
C         5.63637262498169   12.98973464400320    4.25281341518842
H         6.17640461417821   13.91067457209388    4.41677101085384
C         4.64647094397218   12.93910646507035    3.28730258906721
H         4.41393069688322   13.81526296542855    2.69736671594808

