33
CSD_code = EBUZEG | q = 0 | S = 0 | Stoichiometry = C14H12N3O3V | MND = 5
V         4.88278140705915    1.09978674090695    9.55047763485297
O         5.97588714347072    1.33647477867158    8.01952524550571
O         5.72993942575615    0.13979515391368   10.38812347877912
O         3.61835553394816    0.49757459832609    8.93443158124034
N         3.91224470081030    1.79866784341251   11.13422949875623
N         5.24844073534987    3.09385030521282    9.49952564811812
N         5.99053266605344    3.54498697249524    8.51529631868977
C         3.22566083826618    1.00384999213120   11.93784722143379
H         3.22833233301438   -0.04718888212773   11.67138833069635
C         2.54801297129303    1.49004013142580   13.04766816484288
H         1.99682792820823    0.81523412404473   13.68217164223023
C         2.59321364466244    2.85184657217012   13.32309035771158
H         2.07575932649697    3.25635365867014   14.18001936072408
C         3.31011457061071    3.68178762932651   12.48386179130950
H         3.37245908890542    4.74459839185795   12.65914120100850
C         3.96643158424939    3.11932803901185   11.38385624455803
C         4.74617632525204    3.84478557499687   10.42051844764376
H         4.89741275424589    4.92098403059634   10.46063167995840
C         6.34616606435566    2.50289699267311    7.74328122026006
C         7.17980838935278    2.76868237264195    6.56662882376621
C         7.57493753249859    4.06398761795100    6.23569615927472
H         7.26174596284224    4.88337199008485    6.86303028685023
C         8.35390720474494    4.28066215280132    5.11674702454410
H         8.65630286766050    5.28659207019690    4.86307669352001
C         8.75551801685448    3.22185156508049    4.30842045091166
C         8.35808410105417    1.92982651805354    4.64796164975311
H         8.66591953139535    1.10145554310106    4.02641199263823
C         7.57940168606421    1.69979771140600    5.76138034456541
H         7.26640239550578    0.70054616836791    6.02913104069595
C         9.60300530507493    3.45037640028402    3.09696172620413
H         9.75921670172308    4.51131613883127    2.92091585749732
H         9.13276038148539    3.01336071662538    2.21744573729227
H        10.57394088173573    2.97232038685982    3.22330714416737

