25
CSD_code = ECAHUO | q = -1 | S = 0 | Stoichiometry = C12H4Cl4CuS4(1-) | MND = 4
C        14.85369651882031    6.59468132970675   13.65081081667916
C        15.95186192985302    7.25443267038207   13.10224964158385
C        16.91524253484775    7.83718128391027   13.90566711387246
H        17.75488436890604    8.33853506312593   13.45216338097725
C        16.79144249574354    7.76818010001966   15.28320153301377
H        17.53232760049956    8.21488940730809   15.92627082993030
C        15.70385006300931    7.12034688560293   15.84048379318191
C        14.72403251240625    6.53271822630508   15.04247463163702
C         9.65578583389489    3.54203237988883   13.04499300807415
C         8.63203836407124    3.02163051555984   12.25544264676580
C         7.62243171134546    2.25128443655383   12.80355186479300
H         6.84324965897292    1.86352838608401   12.16754300262682
C         7.62308686231059    1.98805473969715   14.16311414572604
H         6.84444114188311    1.39098899329647   14.60942828677741
C         8.63548055126772    2.49529077025228   14.95737376760002
C         9.66135862599422    3.26835321110735   14.41702000641493
Cl       16.11167474369107    7.33833880973544   11.38954538327740
Cl       15.55066508430566    7.04035333649191   17.55407625472758
Cl        8.62487313516905    3.35091655627476   10.56498087990874
Cl        8.63577787659183    2.16230994067902   16.64715159385078
Cu       12.21447419779900    4.99959355578785   14.03820026822589
S        13.66464286140992    5.83594075864947   12.61858896098096
S        13.34055537686554    5.74750744163739   15.76631690476369
S        10.90464094927628    4.54016596005261   12.33876702644290
S        10.95018500106532    3.87064524189080   15.43238425816757

