55
CSD_code = ECANUS | q = 0 | S = 0 | Stoichiometry = C27H19Cl4NO2PRe | MND = 6
Re       -5.24413971444393   -1.95896547094958   -5.50577464634082
Cl       -5.76121643390835   -4.02880770807560   -6.31212445321304
Cl       -6.25711343212835   -2.51770062589845   -3.55766304723835
Cl        0.59274329581889   -2.95969324584284   -9.25686788183406
Cl       -0.75564014698498   -4.04837794994021   -4.17984667174194
P        -4.01700653765671   -0.35372204293576   -4.10590936133541
O        -6.33301816165706   -0.89820744348618   -6.17416136654006
O        -3.39120242431112   -2.84766032750000   -4.98331323813981
N        -4.00605774982701   -1.79872985013609   -7.28967195068555
C        -4.37909248645198   -1.27087387696418   -8.43459441591626
C        -3.54327570378128   -1.27168505849133   -9.55689857767241
C        -2.28620748935636   -1.81313565916774   -9.47182513460764
C        -1.85834392278663   -2.37423375114530   -8.25241910751773
C        -0.59141931009709   -2.93645548826177   -8.00052173843898
C        -0.27479521174688   -3.44832596347135   -6.76447211637750
C        -1.20171602081140   -3.43489379278105   -5.72489819085290
C        -2.48334753397888   -2.91210218051148   -5.89934437150407
C        -2.78725138872950   -2.36293589312915   -7.18321680627658
C        -2.35345552075613   -0.08501641218241   -4.77215129713956
C        -2.25975239700258    0.47671780876389   -6.04481256180437
C        -1.03060462779815    0.58468552312491   -6.66512160320731
C         0.11048428440989    0.12782590578190   -6.02271415212837
C         0.02197022424008   -0.41710899697762   -4.75313329466469
C        -1.20665933756133   -0.52685811483810   -4.12433241043856
C        -3.79810606732935   -0.78932621956685   -2.35914078452840
C        -3.40046963331431   -2.07879633644697   -2.00950638396879
C        -3.21553330514557   -2.40720107293984   -0.67997237740150
C        -3.42853523154174   -1.45915338741524    0.30815505944584
C        -3.83183552331401   -0.17997627176622   -0.03622280042545
C        -4.02040092872305    0.15864688491167   -1.36440058242018
C        -4.78649704683580    1.28950950569076   -4.08215133360357
C        -6.17616743433497    1.36409815230250   -4.09827781617625
C        -6.79889390264696    2.59766524589063   -4.04127392161963
C        -6.04019360664074    3.75589673341241   -3.97373325542899
C        -4.65649798969103    3.68247580808350   -3.96147195572534
C        -4.02519977340359    2.45239734415894   -4.01237968405661
H        -5.36751760852299   -0.83357290486318   -8.45945647250745
H        -3.90115594915619   -0.83900761551529  -10.47706837466735
H        -1.61814237727034   -1.81934577120267  -10.31920109482465
H         0.70361116710643   -3.86575902466058   -6.58539933645943
H        -3.16244242199448    0.81821087890755   -6.53627879298093
H        -0.96076767797619    1.01382333308219   -7.65369595104730
H         1.06848379311722    0.19686529117747   -6.51500886280235
H         0.91112698510294   -0.76852474012457   -4.25177835511066
H        -1.27734301170695   -0.96264806300353   -3.13815138500261
H        -3.25110086102957   -2.82336638968259   -2.77698281120836
H        -2.91030237340618   -3.40822994836730   -0.41416850849186
H        -3.28803089224842   -1.71960420046796    1.34668671881344
H        -4.00687774143729    0.55844245827349    0.73231956889741
H        -4.34474427621077    1.15548418174587   -1.62554541115062
H        -6.75498919015733    0.45135290455137   -4.16771846479981
H        -7.87652152723949    2.65665932083529   -4.05355384772071
H        -6.52718679657216    4.71875617258224   -3.93370442831604
H        -4.06636751300243    4.58570211804836   -3.91114529812229
H        -2.94558353719002    2.39158622738772   -3.99768466100206

