78
CSD_code = ECANUU | q = 0 | S = 0 | Stoichiometry = C35H37ClN2P2Ru | MND = 8
Ru       -3.76053095198896    3.17586719643237   11.41276316235330
Cl       -3.92699041630165    0.92254149972219   12.19450083908185
P        -2.19791924946265    2.52337217707096    9.95192096483432
P        -1.89195888952203    3.39344972554884   12.62915039000861
N        -0.10650758969718    1.72256750306811   11.44445717093706
N        -1.20833481591237    4.96580310663010   10.54742346203873
C        -1.01385754839758    1.18840640461953   10.45379153394269
H        -1.59457058848931    0.31902995192831   10.80860641469610
H        -0.44885154947876    0.90402693939882    9.55631098958721
C        -0.75545387863871    1.93614565978755   12.72148370073645
H         0.00647257745368    2.17183547668224   13.47475171047538
H        -1.34366620130874    1.06381754153005   13.05776751760257
C        -1.00469563573169    3.88789334755040    9.59900089813126
H         0.03425655773549    3.51226530585688    9.60307832528736
H        -1.25302404115302    4.27756608074579    8.60740932802231
C        -0.75199098370195    4.64933933118983   11.88582406458823
H        -0.84656486205246    5.55428898359245   12.49588794385283
H         0.29531067033205    4.29798031992339   11.91225918839528
C        -5.35142043897843    4.45799203924868   12.35004358159318
H        -5.56490334320524    4.68568358683495   13.38607800047622
C        -5.99797691834566    3.47404269037100   11.56555041145332
H        -6.73345548294221    2.76322748857586   11.92353969270248
C        -5.59234323101237    3.63189583196649   10.21722518699638
H        -6.01996139867478    3.12340198340594    9.36315966874518
C        -4.70386437506358    4.74505851041162   10.16189893510285
H        -4.31081808491037    5.19160525241826    9.25797821798552
C        -4.55101244745489    5.24944414736072   11.47400993933940
H        -4.02844334633916    6.15389740530515   11.75420493697713
C        -2.72304736788381    1.85746459743630    8.34477545930609
C        -3.82950529978705    1.01307860564980    8.40195833805953
H        -4.29463360678091    0.83120773972929    9.36459521224443
C        -4.31525732810723    0.42109320844735    7.25170139674651
H        -5.17236743092811   -0.23452350373505    7.30022805713696
C        -3.70177442757378    0.67447500526608    6.03483945887218
H        -4.08301754203365    0.22075965194015    5.13159513219421
C        -2.59726133125257    1.50827610066125    5.97453096103306
H        -2.11696927084948    1.69976592243085    5.02546565493136
C        -2.10137706107577    2.09685188550336    7.12520925308417
H        -1.23264289301254    2.73749050720500    7.06738624281724
C        -1.95417068398737    3.80279549863704   14.39891685928230
C        -3.10441600199421    3.42238020761410   15.08102993690030
H        -3.89544414331125    2.92958164990641   14.52714523747272
C        -3.21952721773990    3.65828269160368   16.43873613145186
H        -4.11312582754163    3.35975672005212   16.96715233117669
C        -2.18413687128039    4.27782160289857   17.11949863682747
H        -2.27165696309542    4.46899632464267   18.17911558917736
C        -1.03042271372908    4.64730740109488   16.44552752994248
H        -0.22100475640058    5.12140737777436   16.98219180716327
C        -0.90820998814336    4.40719821693689   15.08880648425236
H        -0.00120277787004    4.68360538537143   14.56809583300014
C         1.11228067766403    0.92911947878121   11.59478115385852
H         1.48663786263614    0.69862072879501   10.59253427260767
H         0.91712528832305   -0.02124178048390   12.11637895316836
C         2.14362606665700    1.73591607791507   12.33684355243991
C         2.55510156005274    1.38720448196093   13.61565250972177
H         2.16069925700224    0.49313113587712   14.07779039476663
C         3.46557580283385    2.17403322262590   14.30073682361775
H         3.77890445550909    1.89044580232157   15.29464484557579
C         3.96797030621268    3.32351348265805   13.71634671930950
H         4.67435078124449    3.94002129390670   14.25230566557629
C         3.56452844386576    3.67873699433882   12.43960270693450
H         3.95835552380489    4.57285949561381   11.97786581568120
C         2.66020606901887    2.88789578830117   11.75488224958903
H         2.34951700772677    3.15856826462925   10.75572425945538
C        -0.60604909507600    6.20698776573725   10.05941002088911
H         0.47432196500186    6.07640601725435    9.86971644878223
H        -0.72427497379463    6.96289655094909   10.84107087266052
C        -1.29472451397918    6.68418578923161    8.80984208197779
C        -2.55471198535574    7.26223337251599    8.89485119041818
H        -3.00917044509960    7.39433283592522    9.86482366060035
C        -3.22395871124905    7.66460653970171    7.75338699913510
H        -4.20514682571241    8.10963450327728    7.83336225390564
C        -2.63842876034211    7.49679061475864    6.50963676418986
H        -3.16146189393263    7.80760633484105    5.61744232283341
C        -1.37785820972309    6.93352922435836    6.41508215865577
H        -0.91307900899175    6.80602292193294    5.44828944227718
C        -0.71089648645670    6.52976143555131    7.55890285469524
H         0.27620780977923    6.09436334247582    7.47871528766651

