61
CSD_code = ECAREF | q = 1 | S = 0 | Stoichiometry = C25H31O2PdS2(1+) | MND = 5
Pd        7.78401307464355   14.71894766014135   19.99785750157540
S         5.53944876679126   15.27661833197586   20.84090087909213
S         7.25711549407905   12.77613253855391   18.57134441710878
O         5.22896981164967   16.56953666223780   17.05982017682931
O         4.42091939891984   14.59564849249235   16.28799801109201
C         4.80055194999654   15.98785836418460   19.34036525604131
H         3.74861867034222   15.70732156942714   19.29296933598896
H         4.86817170902766   17.06801409567853   19.48361017776446
C         5.54478902655909   15.63015289337936   18.04793834150666
H         6.65092776971111   15.66564852446487   18.25501139075839
C         5.12620210512255   14.26678286772363   17.45247172598040
H         4.42134618719223   13.74297827250775   18.11098127673015
C         6.29522489348862   13.32845863653809   17.13480415649201
H         7.02697671325877   13.81659293102803   16.48938479303225
H         5.91622811354974   12.44266858014361   16.62406855478307
C         4.72827869415516   15.92432826849775   15.89154459907201
C         5.78850361243550   15.95071941463780   14.78664391321425
H         6.74147153668866   15.57849157920607   15.15497781927981
H         5.92314920860175   16.97149687662208   14.44337918457926
H         5.45870059755646   15.33011430811737   13.95940125592590
C         3.44340547236617   16.60937618069429   15.43901686221364
H         2.69718298548121   16.54900303930690   16.22628631269719
H         3.06470161012243   16.11431725603277   14.55117755526827
H         3.64807957633338   17.65209883533358   15.22079248425846
C         6.05007561554991   11.85024467555521   19.60184693034511
H         5.12221983674441   11.75596531945490   19.04126656701136
H         6.49042162741400   10.85902123192972   19.71579732029691
C         5.83455691396359   12.47329266328180   20.97851996631731
H         6.80556450732654   12.84594279953010   21.36807603832397
H         5.50333558091024   11.68023408915906   21.65328969522217
C         4.80171373947341   13.59956410170631   21.02851536130532
H         4.33527284967094   13.62374602845042   22.01369736273882
H         4.02067177143883   13.47824383116416   20.28073430979700
C         8.86041928500024   15.91554147031647   21.43088364482839
H         8.97814781943465   15.18468643603871   22.24216749117608
C         9.63451112299960   15.76662692554549   20.26566103785424
H         9.82975470551366   16.62648890920491   19.62815114038560
C         9.90010758640576   14.46255556801255   19.80097296641325
H        10.09767713072752   13.66808023327112   20.53050300094390
C         8.23604087805594   17.18708076364872   21.77696008712770
C         8.13903599411228   17.60695790865134   23.10420544031054
H         8.55626281127667   16.99372232867070   23.88915982486020
C         7.53554512658496   18.81202714542500   23.41158730658597
H         7.47671519021066   19.13404565877279   24.43955677944401
C         7.00083814589636   19.60156776380349   22.40650808864694
H         6.52429342410163   20.53800050300584   22.65086949004022
C         7.06700524935130   19.18229330061977   21.08548418970599
H         6.63672408352097   19.78981307397044   20.30374873699883
C         7.68041037237958   17.98722376649440   20.77045929511081
H         7.70577873781470   17.64689658098749   19.73551609176974
C        10.32497517594137   14.21684422377787   18.42694007379371
C        11.22061000078180   13.19345351690482   18.11470687974247
H        11.63744698794944   12.59102449868076   18.90802001943887
C        11.58970829698329   12.96484655338781   16.80222592223523
H        12.29259606417258   12.17919978169181   16.57290373687314
C        11.05733006417494   13.73652597814606   15.78221444320792
H        11.34401635639189   13.55285961328088   14.75863564494872
C        10.14709834854040   14.74168931433991   16.07631719337346
H         9.72608218194678   15.33658947976809   15.27923050088571
C         9.78305794790937   14.98271353392151   17.38558900554825
H         9.05380149123370   15.76238425044144   17.61133243510070

