79
CSD_code = ECAXIQ | q = 0 | S = 0 | Stoichiometry = C38H30F6P2PtS2 | MND = 4
Pt        5.23014132928146   13.94409868408646    2.77423560779107
S         5.72559010015364   16.28275787634789    3.05186154660268
C         4.05376369730866   16.79560898899641    3.39702743885243
F         3.74683186929968   17.94014096119665    2.75882076516222
F         3.13413540046269   15.89442740735443    2.96817056374327
F         3.78502286099854   17.01427585547856    4.68690731322377
S         4.61279795576415   13.81321010855938    5.09969453011417
C         6.30669436279328   13.58424201448448    5.58715532312471
F         6.95578750654030   14.71345522636329    5.89452949179312
F         7.06609009709166   12.98797833660758    4.62731293373866
F         6.41208081940719   12.79148960168148    6.66628413674851
P         4.44373164949942   11.78502357495043    2.73719577947138
C         4.05748383329159   11.09632748994742    1.09635670545846
C         3.38448124319803   11.97482531545722    0.25112676834915
H         3.21160215300001   12.99068934413940    0.58821543678383
C         2.94868123003937   11.55501829465654   -0.99039902944589
H         2.43189370731392   12.24234898417529   -1.64410031362802
C         3.18229150286236   10.24837299673651   -1.39291037028218
H         2.84735189484540    9.91501937766665   -2.36397464742330
C         3.83863364987536    9.36859918635447   -0.54841786723418
H         4.00991825149812    8.34878469333126   -0.86067253811039
C         4.27165572564084    9.78416330022148    0.69963550626200
H         4.77490156981104    9.09017180399673    1.35706036936231
C         2.79510739332893   11.55220357480493    3.46602661615302
C         2.33443613369689   10.26921387151999    3.74632996230782
H         2.97862202553066    9.41632991510661    3.58004734410082
C         1.05810325716629   10.09419778043770    4.24694244535157
H         0.70354142963109    9.10016751621194    4.47736106067915
C         0.23523588058788   11.19055846460352    4.45405843006194
H        -0.75870004362275   11.04863203165267    4.85173989017266
C         0.68508453601031   12.46499739766720    4.15176279106987
H         0.04406848963188   13.31890695653894    4.30971486014763
C         1.96228911273959   12.64742618517550    3.65310409378221
H         2.32716056035093   13.63965003067535    3.42600481728813
C         5.52118804399963   10.60681885637940    3.58364560286424
C         5.32480520633047   10.31533049701517    4.93120208489548
H         4.47212414581471   10.72875235059620    5.45196217920934
C         6.23144861622771    9.51425333982715    5.60064282486629
H         6.08099173120249    9.29627462060471    6.64714891586141
C         7.33727020246607    9.00881396336788    4.93619458458728
H         8.04564766075339    8.38802648693148    5.46432446505367
C         7.54428275654347    9.31215352455223    3.59970689556274
H         8.41362636636246    8.93070776687906    3.08430862740442
C         6.64623417476840   10.11706977173974    2.92477064494047
H         6.81304130640078   10.37808312711998    1.88945146636385
P         6.33171303947248   14.07472479800399    0.75296239701768
C         5.40145035762366   14.73463919980556   -0.65447317188593
C         5.86696016640870   14.65704347441761   -1.96460906461651
H         6.80165972622265   14.15662352627345   -2.17799403054384
C         5.12626819294634   15.21724504025462   -2.98940367101963
H         5.48709875110397   15.15708393209479   -4.00587464912026
C         3.92762258107642   15.85822154859184   -2.71605843098110
H         3.35634511872812   16.29491211237024   -3.52170509886245
C         3.46400196187433   15.94103777793261   -1.41324307399096
H         2.53322585306489   16.44396600413589   -1.19872132599070
C         4.19948033647731   15.37971036414226   -0.38554290529453
H         3.85205791125356   15.43601823571331    0.63854376664097
C         7.13509716698852   12.56560391615900    0.11375273941954
C         8.35908766885253   12.16351210862530    0.64352050303462
H         8.84202324661677   12.76577780893612    1.39826435981617
C         8.95879561379834   10.99616522029232    0.20662525929248
H         9.91002942239812   10.69643192474797    0.62070185123810
C         8.34104827409435   10.21249014707651   -0.75472606340648
H         8.80852282255586    9.29968247973307   -1.09254704583808
C         7.12198572927822   10.60533293011819   -1.28225909876139
H         6.63405244211286   10.00036075820349   -2.03205752325391
C         6.51991829264582   11.77381656461829   -0.85204610850810
H         5.57144024099804   12.07407792063474   -1.27103299868435
C         7.75380039923914   15.19373026429510    0.94812659626316
C         8.15103563114345   16.10434282976351   -0.02174964058304
H         7.60504691123950   16.18761915431214   -0.95012755115140
C         9.23948342117735   16.92656995933902    0.21438056143940
H         9.54169954421645   17.63993849493851   -0.53833684843819
C         9.93028635015139   16.84831768010754    1.41154939367423
H        10.77184036893560   17.50033739119000    1.59223578595118
C         9.53076778470654   15.94687687083646    2.38527960509178
H        10.05421694370586   15.89630615410587    3.32804860192822
C         8.44535745693010   15.12422232932803    2.15641690709879
H         8.10840887602338   14.43826362670563    2.92343391981800

