32
CSD_code = ECECIY | q = 1 | S = 0 | Stoichiometry = C7H16N4O4Re(1+) | MND = 6
Re        0.22295900991705   17.07559805998322    2.86274457672672
N         1.37282850105775   15.34135402845929    2.02001068724882
N        -1.13081286096926   16.24138462000745    1.74980707647564
N        -1.10585882626960   17.98927034690074    3.94339047492526
N         1.41094959634660   17.51037587714132    4.72002760526468
O         1.04476133867684   18.20752749643036    1.94984628945936
O        -0.47811551994418   15.15679975585921    4.39698520702377
O        -3.29568049559913   15.93491966661825    1.14275429464466
O        -3.25486071428040   18.55384166292875    4.40443512182137
C         0.69150941614648   14.99772848508951    0.75397202233247
C        -0.80733181531026   15.01502073136315    1.02279595926586
C        -2.44455250707942   16.64360409497752    1.62062867233263
C        -2.70739592146791   18.05024477195743    2.11966852497546
C        -2.42051338548578   18.22607068084859    3.59754691698348
C        -0.75648015959434   18.41963326519802    5.29613165686919
C         0.74452756151840   18.67167340103406    5.34693974233683
H         1.37335270077031   14.53146579879407    2.64172230194472
H         2.34621319011238   15.57717487572075    1.83125292588767
H         2.37992111621042   17.74566721655836    4.50917850491104
H         1.42651774316828   16.72677374767254    5.37414514691706
H        -1.03480816828776   14.49869372474782    3.96214940494178
H        -0.96867779272126   15.43107463776438    5.18175916047139
H         1.01022280350298   14.02537888448621    0.36940137565185
H         0.93490901180767   15.77467441923995    0.02559514377834
H        -1.37844905538801   14.98937856026851    0.08986973487985
H        -1.11265737249084   14.13616180240057    1.60780359883098
H        -3.75438759263088   18.29418225777411    1.93730205436321
H        -2.05558444324117   18.73175977758637    1.56653255770347
H        -1.05171689323975   17.65250049961960    6.02572763490713
H        -1.32013499934472   19.32470896624302    5.54163163270438
H         0.98089037474928   19.55283486176117    4.74613313321207
H         1.08165615936012   18.83062302456569    6.37451086020874

