45
CSD_code = ECEFAV | q = 0 | S = 0 | Stoichiometry = C17H23MnN2O2 | MND = 8
Mn       -0.97096133183662    3.38580394000123    9.57828507604648
O        -0.43552339422257    6.25044346552974    9.80899926409448
O        -3.61048846891788    4.20975261843680    8.64628510981592
N        -0.65201142307645    3.32142554081120   12.67369464960681
N        -2.40073466515036    2.23531437290293   12.05947996001431
C        -0.64300996912279    5.10612595406120    9.76562020965653
C        -2.58574455306056    3.87236621766580    9.07847042493312
C        -1.40311135604931    3.02010142802947   11.58184512687328
C        -1.17693689510705    2.74153485575470   13.80983513234098
C        -2.28023645312628    2.04940983661435   13.41821742359819
C        -3.53775840644048    1.76252163726549   11.30451382852398
H        -3.81727060712645    0.77098761439511   11.66941791704149
H        -3.24200427338946    1.68839351239641   10.25578655501103
C        -4.71092813642520    2.73151503876404   11.42463159413347
H        -5.06261765035002    2.80454869607194   12.45055680497025
H        -5.53091653457689    2.39537261997675   10.79736364387042
H        -4.39764260752645    3.71809658993709   11.09190143936991
C         0.51812173151632    4.16946396201422   12.68643698057968
H         0.37831544994763    4.95198126254840   13.43833316151210
H         0.57893955932186    4.64550690295725   11.70461516841745
C         1.80751445623902    3.40143202976820   12.96278140292810
H         1.82089577320941    2.97902925612869   13.96333221766386
H         2.65401074217704    4.07530528446417   12.86298579991651
H         1.92554171542211    2.59350854621018   12.24650409365269
C        -0.61456306988552    2.90493820975815   15.17752619405905
H        -1.40264940270314    2.77268897956436   15.91454885767690
H        -0.18954351307457    3.89706144343427   15.30768739823130
H         0.16226165739886    2.16692126932656   15.37995454478767
C        -3.19741759305867    1.19298303138212   14.21619178947215
H        -2.88945533025316    1.19579205995949   15.25752802407058
H        -3.17291420503039    0.16334330534078   13.85857998422766
H        -4.22480893620762    1.54776998524277   14.15795757870452
C         0.98575396090000    2.43112453557425    9.40879980595851
H         1.92363199414912    2.56779321555671    9.93128641754619
C         0.63089006182121    3.06980553435874    8.19785898598672
H         1.23481881056075    3.79574528152334    7.66810027891868
C        -0.53895863184661    2.44929385498977    7.70477153644066
H        -0.97976071279236    2.61056366744020    6.72909388690524
C        -0.89616860627209    1.41865837255952    8.60942288493501
H        -1.64832093013597    0.65983474551217    8.43206752372528
C         0.05724990401494    1.38849469276547    9.65075270209472
C         0.18127576568502    0.30847715800274   10.68489422307185
H         0.85013397117862   -0.47358753661991   10.31474398036376
H        -0.78599934195585   -0.14894526462244   10.89372519967688
H         0.59450144517864    0.68480227624487   11.62101521857491

