96
CSD_code = ECEGAW | q = 0 | S = 0 | Stoichiometry = C44H42ClN5O3Zn | MND = 7
C        -1.71541975113030    3.38085919640880    7.54891987580566
H        -1.02079501819244    2.52862911659570    7.51525606758256
H        -2.42717885167047    3.22297146752559    8.36474948051268
C        -0.97091504807787    4.63405000940406    7.90597748829550
C         0.19200696111203    4.62390066012542    8.66893388193384
H         0.62298592429013    3.69007243254779    8.99398702755626
C         0.77636870685504    5.83495295491828    9.00258577983132
H         1.67635445948128    5.85859238146380    9.59852716887386
C         0.20181568250991    7.01590307090228    8.55939349267877
H         0.64030624391687    7.97187649622451    8.79845533534953
C        -0.95773499615381    6.94481987814584    7.79600090924680
C        -1.68287664084252    8.16106652122576    7.29991836624915
H        -0.98872512765291    9.01227461523222    7.23827659516973
H        -2.44621913074248    8.38143683940575    8.05191182151195
C        -1.45073211584972    8.03688313768751    4.91080414231180
H        -0.76814853152465    8.89106952523936    5.04305082171943
H        -2.03840105050145    8.22260166893919    4.01525047870871
C        -0.61617818968263    6.77794764440590    4.69615713209740
H         0.05308135678209    6.93884078176618    3.83764635225458
H         0.01623324701197    6.61579545357702    5.57134348272149
C        -0.72831951664591    4.37204208822549    4.75997217070318
H        -0.02400168680269    4.54388956224851    5.57777132479320
H        -0.14264131239295    4.06093177175589    3.88247980003851
C        -1.66319361284507    3.22972323480913    5.14474101174217
H        -2.34332536911564    3.04053717291035    4.31980813287328
H        -1.05653369045567    2.32253947877208    5.29282354001716
C        -3.69094232535179    2.65624564431079    6.30577940227141
H        -4.36612192545470    3.07225750465824    5.55953712079762
H        -4.18118155157255    2.77149834893214    7.27148790368124
C        -3.39805187274548    1.20183513498342    6.03779390917737
C        -2.98100193025625    0.40635949040006    7.07764497877775
H        -2.95148195633084    0.81171890845687    8.07872277706673
C        -2.59448904614059   -0.92576057182547    6.88153302025021
H        -2.27252354444973   -1.51485275381773    7.72780188442705
C        -2.61425717140615   -1.46346588699682    5.62707711660798
H        -2.29606907873526   -2.48190644049551    5.45610264860640
C        -3.06767775924296   -0.70181127602826    4.53070709048043
C        -3.10775116258846   -1.25864978678015    3.23437296654498
H        -2.76949737392352   -2.27684139476980    3.10259943344852
C        -3.56924456910996   -0.53611946859904    2.17198052307266
H        -3.59521537235345   -0.96779100176006    1.18208998978557
C        -4.03741543785533    0.77062968111393    2.37119151188162
H        -4.43182261649321    1.32674457440671    1.53338355514815
C        -4.00535496342600    1.34079506587454    3.61356065135778
H        -4.40889718009217    2.33497186185422    3.73470786834637
C        -3.49446042516469    0.64073965763026    4.73191174647310
C        -2.13344270606145    5.60350334416388    3.19254614352693
H        -2.78976789093079    6.47221360290510    3.16761648681010
H        -2.78960884231226    4.73838991200801    3.16356664883039
C        -1.21610825070907    5.64607516782019    1.99198693014386
C        -0.79461146943630    6.87375922307267    1.53441196267998
H        -1.18682951547550    7.77679947503428    1.98039875082932
C         0.12695469705735    7.00303105380396    0.48739520503817
H         0.43232824331431    7.98984225745106    0.17194615845529
C         0.63721242617362    5.88927744170766   -0.11363051739531
H         1.36703051853073    5.97088719078990   -0.90611654436841
C         0.19466537091147    4.60805037278816    0.27264721928321
C         0.67752339977594    3.45434095620613   -0.38111259163241
H         1.41386510485752    3.57927751984849   -1.16240882901439
C         0.21964082394597    2.21125405451599   -0.05044398078464
H         0.59344987827129    1.33415760358000   -0.55748972175342
C        -0.76381123347082    2.07679327315216    0.93936484453084
H        -1.15599440857492    1.09859963473529    1.17730444476927
C        -1.23866489116173    3.17481853212367    1.60007690145302
H        -2.01891647197394    3.03505972339774    2.32818502353626
C        -0.76253775536350    4.47502161204274    1.31879011504066
C        -3.54141845350382    8.80262051470437    5.84935152922584
H        -4.12232726389754    8.76903529204214    6.77028685826615
H        -4.15784986634863    8.35213907092592    5.07258997273023
C        -3.17852886253590   10.22776949130663    5.51587500022519
C        -2.85021961146124   11.08222949903238    6.54094053703670
H        -2.93730292059025   10.74398034210413    7.56322164109204
C        -2.41118498812229   12.39078138053343    6.30254041822011
H        -2.16197516637589   13.02730302363406    7.13889014482516
C        -2.29229707064702   12.84687368061546    5.02151384804135
H        -1.93525008533038   13.84668862469472    4.82028066563564
C        -2.65143229147533   12.02397319533693    3.93463094532388
C        -2.55134581067467   12.49814358345296    2.60904042940496
H        -2.18182631328852   13.50131228080536    2.44968404935461
C        -2.91821036306546   11.71640973408113    1.55181815303732
H        -2.83636481887300   12.08510925119065    0.54003999744896
C        -3.42905970120152   10.43118730876260    1.78289219036182
H        -3.74910039297952    9.82798491831045    0.94582024000039
C        -3.53501724339230    9.94182025627546    3.05501477910287
H        -3.97129453492152    8.96434992463962    3.19579754298813
C        -3.12562320265594   10.70362857888296    4.17458064948662
Cl       -4.83278629498954    5.62560343964411    4.91755934128268
N        -1.50775906375863    5.77565030067498    7.51100352042873
N        -4.51957792305540    5.91046349371273    8.68631418724245
N        -2.48214486339376    3.51185687399421    6.31701805510491
N        -1.46199212527306    5.60628398195923    4.50919961458072
N        -2.36975931456691    7.92014930468865    6.03699949224811
O        -4.18827910420399    4.80394878938817    8.23453523320014
O        -5.07661243375613    6.01867850743230    9.74762239376871
O        -4.21836105216758    6.90992124167672    8.00957673974253
Zn       -3.17913156984766    5.73304771230725    6.34979940186765

