49
CSD_code = ECEJUT | q = 0 | S = 0 | Stoichiometry = C22H16CdI2N8 | MND = 6
Cd        4.23283620861437    2.46392002027064    7.53267962471771
I         6.12009388198474    1.06856477011791    6.15384600925603
N         5.62670149283103    1.71988850855536    9.60158349639754
N         7.82988162703274    0.60266732656716   10.84824959659425
N         5.83439591053894    4.14171958926926    8.27565628159603
N         8.03173377706977    4.27422898858582    8.58987720896695
H         8.96629431414960    4.00171324375971    8.84352410767014
C         6.81816189850464    2.32905997589036    9.56679458301254
C         7.91711967334077    1.75906185927016   10.22117224788765
H         8.88829388020415    2.23431865967870   10.24858272342932
C         6.65576792238100   -0.00877445898717   10.84372923614032
H         6.61068022859255   -0.96723791649672   11.34000800412025
C         5.54461633946411    0.56328742752417   10.23229083802929
H         4.57444319273383    0.08488466735392   10.23548525454965
C         6.88621192840769    3.56740758507095    8.81780335284540
C         6.28983425253622    5.26745805139881    7.64807713614989
C         5.60470739903504    6.23821750742160    6.91818810056879
H         4.53894405243964    6.17075097789351    6.76686138600684
C         6.34745427738171    7.27090028754422    6.39243084589610
H         5.85267297189368    8.03676407783373    5.81529087892279
C         7.73192149992204    7.35670280181848    6.57985192064308
H         8.26760051530628    8.18583161063155    6.14330067614760
C         8.42817072746536    6.40993366555268    7.30144049709377
H         9.49615191916282    6.47421168078146    7.44148229818982
C         7.68982269537582    5.36377360881693    7.83387920438158
I         2.34278368165488    3.86178904525425    6.15579325670209
N         2.83751439487330    3.20765238607927    9.60187450632318
N         0.63443007846920    4.32380684956433   10.84975413986605
N         2.62992470097152    0.78680702578817    8.27436568620306
N         0.43310808435089    0.65222186864466    8.59138567141400
H        -0.50135900451488    0.92376373475514    8.84641509870205
C         1.64630865112715    2.59791182126561    9.56773277477006
C         0.54746792063977    3.16727510874219   10.22289158784123
H        -0.42395344860929    2.69244299678681   10.24926769410957
C         1.80820874827087    4.93588269957554   10.84450347813564
H         1.85344338749482    5.89366828801765   11.34207921205196
C         2.91941049463810    4.36420468469132   10.23276300441416
H         3.88970707716312    4.84238550856449   10.23674653711907
C         1.57832813623099    1.35988346069073    8.81823741266735
C         2.17479440420666   -0.33940795788250    7.64745492895667
C         2.85993220603477   -1.30951075869031    6.91670650349157
H         3.92545607339277   -1.24108259336767    6.76411445025639
C         2.11745879734432   -2.34279711148479    6.39173884264149
H         2.61213202261862   -3.10781652409006    5.81337406160467
C         0.73316941215447   -2.42945456496824    6.58019487058948
H         0.19769648847910   -3.25899322678234    6.14420153984880
C         0.03689502041026   -1.48321298938048    7.30243492590773
H        -1.03079716032107   -1.54866394450256    7.44408520295178
C         0.77502724653049   -0.43671032338323    7.83449910416251

