64
CSD_code = ECESEL | q = 0 | S = 0 | Stoichiometry = C21H30BN8O2PW | MND = 7
W         6.88466706608547    7.97595232504358    2.58598715229342
P         5.58598515542840   10.02522412422859    1.99204775968116
O         6.76526052602908    5.96753319630837    0.02213999239528
O         8.76567161539642    8.38906812779791    0.35947267358789
N         8.31094329408425    6.75566922784240    3.66944916442604
N         8.41271091952554    6.84642480402780    5.00060441126640
N         8.06288002700256    9.39304504093068    3.73497464426922
N         8.18428696206588    9.25841946745683    5.05761550181182
N         5.63040942361444    7.86094695746919    4.36876519221675
N         6.19403011792882    7.86058410108720    5.57691500060805
N         7.98178216501731    8.14647180565629    1.21485216301048
N         5.57516314517707    2.28287441356376   -0.94793343650531
C         5.52262422951748    6.65539659606974   -0.04451820361743
C         5.25378042788682    7.03255537428149    1.41559041299832
H         4.20722853018742    7.26129417975159    1.62670065275552
C         5.94313619107837    5.99937045500468    2.15017556451726
H         5.46736421733923    5.50533340348546    3.00329032160754
C         6.44159654599071    5.05949224222819    1.05707332692114
C         5.12271126660229    4.37086920275512    0.49744550943392
H         4.47036250208268    4.07744653663348    1.32464110298887
C         4.53328762165898    5.50171303187700   -0.36266710967179
H         3.50462861571611    5.74530398856151   -0.10265451743109
H         4.58292170294694    5.24941873898326   -1.42286179226162
C         5.38541040366562    3.20851034531438   -0.30127272315139
C         5.56440428859307    7.75795419597042   -1.07916592933461
H         6.30772253126968    8.49102103959104   -0.77807289267910
H         4.58905022681872    8.22853765362016   -1.17583216497114
H         5.85718950467375    7.34308854711749   -2.04029728113172
C         7.56605795303987    4.08372269968861    1.36642606441300
H         7.34166323873755    3.08781657829461    0.99108299570189
H         7.74030040583223    4.02355974424940    2.43716644383894
H         8.46654011270746    4.43049395995339    0.86921242134170
C         9.47308339170395    6.13368520955691    5.42168431516958
C        10.07986725392893    5.57203873084933    4.32101182144982
C         9.31465848904566    6.01028235184692    3.23862608573354
H         9.45724502669102    5.83697319953357    2.19071596142174
C         8.97016710807838   10.23111876743930    5.54444443070869
H         9.19589849934837   10.29301680790583    6.58953177935091
C         9.36980648700811   11.02934855491995    4.49348208845150
H        10.00142720646829   11.89276785587246    4.52868643045279
C         8.77492778715851   10.45190471840302    3.37206779703186
H         8.85360504742575   10.74233726763907    2.34106764962904
C         5.25235974038672    7.77332259531579    6.52872412391300
C         4.02235839341955    7.71387956911198    5.90980290289709
C         4.31862034651270    7.77240060626255    4.54873248218504
H         3.63678052402497    7.74436226730626    3.71991057997702
C         5.47778536587846   11.22765790826509    3.38791051323183
H         6.46955602101385   11.59513772759685    3.64295414174263
H         5.05381614000245   10.73011495672529    4.25965073960284
H         4.84316756902973   12.07070716335861    3.11655507767622
C         6.24654762508194   11.11749353848715    0.67108333954656
H         5.83286685179898   12.12165867095859    0.76273663162215
H         5.97831297035680   10.70079028009686   -0.29718733556861
H         7.33070842092406   11.16076247867571    0.73199617803667
C         3.81006423345092   10.04756951718264    1.50257548440893
H         3.50559232295360   11.07005101630519    1.28081006457422
H         3.19481493372514    9.66232061943851    2.31297999962581
H         3.66524710031718    9.42957837843898    0.62026175585730
B         7.70332125269168    7.97300024918450    5.76226704885602
H         7.99264102926381    7.97808259536692    6.90895223266602
H         9.72394180949889    6.07603452401896    6.46148330291969
H        10.94711959476802    4.94545869725644    4.29783392296285
H         5.51042785948498    7.75822178628306    7.56780391773114
H         3.05789266491875    7.63810928551466    6.36809211470571

