122
CSD_code = ECETOW | q = 0 | S = 0 | Stoichiometry = C61H52N2O2P3ReS | MND = 6
Re        1.14371993881159   -1.57908059764402   -4.21081572350376
P         3.27887902096890   -1.18899376955893   -3.12825106650875
P         2.44270888754235   -3.17186829606207   -5.59266773713780
P         2.07237043440729    0.24463315866151   -5.59978794148211
S         1.03421498537548   -4.67951076661541    0.60275997771727
O        -1.42527856462387   -2.00213794974003   -5.87348301870502
O        -0.83430381858200   -0.04671875575101   -2.40344879610584
N        -0.04179948711915   -5.72137073627611   -1.59343074798406
N         0.56303840461889   -3.42622775449794   -1.60851912038367
C        -0.45473215583148   -1.85650181661015   -5.26625743186180
C        -0.03526260725082   -0.55374115874574   -3.07540495075909
C         0.43383512741354   -3.31858651288875   -3.01132075664107
C        -0.14927134189545   -4.35987805356393   -3.61658076978826
H        -0.26303054902359   -4.37280239022197   -4.69291587428331
C        -0.70864069592981   -5.55720332501656   -2.87796095067387
C         0.43482933070177   -4.68484243149866   -1.05179560237278
C         1.01846078353258   -2.48502006039777   -0.72431008509664
H         1.10387687146574   -1.45994252977151   -1.04303242898822
C         1.30690606121956   -2.95247932296157    0.49586436418990
H         1.65894510818148   -2.41472603580102    1.34966741054015
C        -2.19451756935190   -5.37703401331362   -2.57101530938243
C        -2.90112971590063   -6.45024967813818   -2.04245771827899
H        -2.39321357333242   -7.39060970730969   -1.88823634046381
C        -4.23528131279259   -6.31276947405819   -1.70873039699749
H        -4.77623262684340   -7.15348119412976   -1.29795409752154
C        -4.87790705227010   -5.10057478811123   -1.89927424182780
H        -5.92147057989039   -4.99268605255230   -1.63976150226108
C        -4.17580905135282   -4.02754789529879   -2.41847907040794
H        -4.66776792963969   -3.07669784765030   -2.56517166919933
C        -2.83822126624788   -4.16137658219374   -2.74967826724949
H        -2.29519990375340   -3.31593247441293   -3.14998655325964
C        -0.53430188027631   -6.80693634843362   -3.71862745221662
C        -1.10900024438275   -6.87046248909138   -4.98268445502903
H        -1.70096628244293   -6.04239252763650   -5.34629556256762
C        -0.93822758693787   -7.99281777422734   -5.77134444224911
H        -1.39337895210294   -8.03245588101086   -6.75101543003917
C        -0.19598317177910   -9.06603299012838   -5.30694387775783
H        -0.06251489806468   -9.94244515175567   -5.92536255400029
C         0.36156486442618   -9.01587494032671   -4.04128195628020
H         0.92794440918140   -9.85763592950638   -3.66714863596482
C         0.19167809710239   -7.89265057766443   -3.25092402473049
H         0.60462584408032   -7.84191919557665   -2.25432958238747
C         4.67178854088232   -1.60559555424281   -4.28038232568658
H         5.58407434751146   -1.16205667074424   -3.86759650482591
H         4.79470034505988   -2.69164115666342   -4.20457736215815
C         3.90487290956278    0.20882220375481   -5.84676435644457
H         4.14452669930899    0.65978445077062   -6.81423444841058
H         4.34163958944043    0.83654358383339   -5.06384770494920
C         3.66954446568965   -2.19687255326841   -6.57339737849134
H         4.29890371037345   -2.89041796489308   -7.13903260568505
H         3.07657553824355   -1.64597263997904   -7.31187467180819
C         4.51821003554547   -1.19626931828093   -5.75766991040961
C         5.92355007546832   -1.13439116384242   -6.37426347924361
H         5.86473480790338   -0.95534509103771   -7.44708743258002
H         6.46061771266485   -2.06759794755218   -6.21247764232870
H         6.50445157101609   -0.32888703058826   -5.92679743374828
C         3.89127311413738   -2.13327095472362   -1.69076687797593
C         3.75718167317913   -3.51738419438120   -1.74856254295913
H         3.29079521049423   -3.97127588205840   -2.61241129503789
C         4.18407263593791   -4.31093850948643   -0.70349383187629
H         4.06939333550730   -5.38303091436007   -0.76207113467473
C         4.73713885982123   -3.72322405045695    0.42279755342400
H         5.06167598816368   -4.33817765988824    1.24858123269990
C         4.85624257928838   -2.34584825507197    0.49496545159065
H         5.27655001706509   -1.88554027357909    1.37755620343550
C         4.43484070077510   -1.54758354814586   -0.55419888618191
H         4.52260823721366   -0.47287181207492   -0.48069699417409
C         3.62378013029260    0.52804776397125   -2.58487389855119
C         2.54503463967376    1.25367283637670   -2.09009971579871
H         1.56990201001050    0.78826524487529   -2.05826140897134
C         2.70161288618054    2.55580612796159   -1.65296086702683
H         1.84956589619872    3.09974036872610   -1.27462315208401
C         3.94535973228286    3.15828465970582   -1.71354321517683
H         4.07260128418223    4.17982402147217   -1.38823192963103
C         5.03172500052888    2.44098591444097   -2.18670688015122
H         6.00933482911920    2.90038500918930   -2.22231456565552
C         4.87802836942747    1.13365623410648   -2.61033291125885
H         5.75176777243373    0.59474104038646   -2.95024250495589
C         1.49076943984309   -3.91194124562896   -6.96625376319639
C         0.78795886283186   -3.04059881500016   -7.79547046556697
H         0.83016066529479   -1.97439901128009   -7.61780752354058
C         0.01312702458585   -3.52381663808706   -8.83062681086787
H        -0.52610022951119   -2.83201674209446   -9.46099249500937
C        -0.07948167493458   -4.88953436014369   -9.04490884402269
H        -0.69093878173740   -5.27156333712870   -9.84890146653206
C         0.60524591906304   -5.76212401265073   -8.21740457201464
H         0.53136707104839   -6.82847092368201   -8.37090808492455
C         1.38593603248772   -5.28150218705165   -7.18065116216209
H         1.90078226981472   -5.98242309961468   -6.54049049903099
C         3.41645816350621   -4.63511344930631   -5.05797253740895
C         2.75937194991157   -5.58900718328217   -4.27985798225698
H         1.72351287324844   -5.43175459701198   -4.01413199470251
C         3.41513940977113   -6.72139305956826   -3.83449205474362
H         2.87687540433348   -7.44009464398231   -3.23644893471756
C         4.74572724550141   -6.92526840544693   -4.15680222290418
H         5.26404949084298   -7.80627128314360   -3.80893357857724
C         5.40820691373040   -5.98984020672734   -4.93179268703787
H         6.44607018909357   -6.13945194036340   -5.19374077796855
C         4.75319649742284   -4.85582791754441   -5.38003075291111
H         5.31179353823738   -4.15590835643342   -5.98302032252995
C         1.83672585603592    1.98334953211444   -5.07328237594665
C         2.75875186947356    2.99200854680709   -5.33039221898968
H         3.68279598699087    2.78632437707074   -5.84935507865588
C         2.49905748741398    4.28866195990709   -4.92445948607421
H         3.22732683848481    5.06265405481771   -5.11971764793858
C         1.31493226120215    4.59891972232913   -4.27859016431159
H         1.12126744669824    5.61326915645776   -3.96266814037818
C         0.37885540494456    3.60520041881782   -4.04806306035321
H        -0.55296128873983    3.83807847843100   -3.55463937485564
C         0.63966249428630    2.30755856866899   -4.44386059200166
H        -0.08132311208780    1.52551441387663   -4.25202141458091
C         1.35761583569048    0.46917505228175   -7.27467526850104
C         2.04672810280607    0.48909496201639   -8.48092258775304
H         3.12163025334571    0.37832291067496   -8.52131261239858
C         1.35708765820762    0.64297552036305   -9.67230249290166
H         1.90380943087125    0.65062821054820  -10.60432611853903
C        -0.01916554730598    0.78162949198649   -9.67428427023136
H        -0.54904257417418    0.89589872206766  -10.60813394230608
C        -0.71350550126496    0.76915829507115   -8.47446016311461
H        -1.78801703614758    0.87217453496615   -8.46612383762643
C        -0.02961136450165    0.61265708780008   -7.28612105467195
H        -0.56647937858276    0.57898370142826   -6.34715874763995

