123
CSD_code = ECETIQ | q = 1 | S = 0 | Stoichiometry = C61H53N2O2P3ReS(1+) | MND = 6
Re        4.67381355349716   10.12033786614791   12.05916852556151
P         5.93953682455309   10.08279186058363    9.98207992277355
P         3.14092162464271   11.56309147233451   10.76816624721095
P         5.75081649803324   12.32148087147317   12.46181775850939
S         4.70945962448597    4.50738483777217   12.45980895445956
O         2.92389187425806    9.76773502306052   14.57263138259430
O         6.83259850834432    8.54633148921337   13.60802320869160
N         2.31806611246511    5.78681667841460   12.29873364536699
H         1.87004577146650    4.98851795935169   12.72247101407890
N         4.26567037496958    6.91092584398409   11.69880265936607
C         3.58786008832521   10.00578974125885   13.65774398624115
C         6.02928182524224    9.13964019783849   13.02578529225392
C         3.58801578016145    8.17932189718980   11.66011305660460
C         2.25580633260410    8.08750403590823   11.64964116023865
H         1.65285347061997    8.98021407131807   11.63155445880631
C         1.47371006749224    6.78800153895069   11.63802145071268
C         3.63289901159511    5.82386933282814   12.15412405408587
C         5.60765819350730    6.69507906969240   11.50353916145532
H         6.21574334437324    7.47948324275756   11.09181183893195
C         6.02630604905044    5.47341661630309   11.86206828528884
H         7.01472692853091    5.06794450654426   11.81926621493526
C         0.20040414581613    6.88649280681678   12.46132763572889
C        -0.89361213510361    6.08279775206373   12.16436756560300
H        -0.85596212143415    5.41142544328490   11.31858207967992
C        -2.03597504642808    6.14465525821319   12.94273364370953
H        -2.88206702011536    5.51993548551198   12.70027602871636
C        -2.09183715189130    7.00096084240417   14.02935421572567
H        -2.98445325810390    7.04981442648289   14.63394178713515
C        -0.99566651010684    7.78640204923371   14.34270166413018
H        -1.02675558308448    8.44600840567188   15.19644085694838
C         0.14870422674939    7.72573122981508   13.56723716838017
H         1.00610077351132    8.32811833633259   13.82680160359333
C         1.18946346762953    6.42014470715086   10.18928395159397
C         1.81927982269322    5.37129194930016    9.53406501701679
H         2.52834207124981    4.73988761083539   10.05007468245403
C         1.53206046299042    5.10288933003396    8.20553951174286
H         2.02298110203413    4.27800647523323    7.71170339938164
C         0.61759357188662    5.87972911211033    7.51724671924805
H         0.39071201411148    5.66295318141318    6.48452724783372
C        -0.00669255016036    6.93515887617694    8.16342593211301
H        -0.72189810114198    7.54858044734203    7.63687290902397
C         0.27918703680143    7.20459761250348    9.48799342019504
H        -0.21495806152380    8.02060961221832    9.99226436695407
C         6.49332047532522   11.77486502014222    9.48139473874931
H         7.39183637089535   12.00028204557034   10.06408713091363
H         6.78663288826865   11.72421664037523    8.42758529633506
C         5.53080419803481   13.51775390072482   11.07427505274528
H         4.60066800041979   14.06161842710559   11.27222123602724
H         6.35139992742597   14.23961597346950   11.11274555257600
C         4.03102420012938   12.38723449924431    9.37219992047991
H         4.08990237141249   11.66573907481487    8.55062347783512
H         3.40738849733469   13.22141894240632    9.03608219708675
C         5.45235578288351   12.89505632170167    9.67049176285481
C         5.77047033323726   14.00158416684493    8.65351702639234
H         5.14406142985757   14.87482424380743    8.82757575947041
H         5.59488445822627   13.65250703616248    7.63730437701402
H         6.81199668358068   14.30876319674256    8.73140061714146
C         7.54644400342949    9.21065116501079    9.99746000867829
C         8.50550587379270    9.63247111321644   10.91498985475704
H         8.29424171398190   10.46846499034744   11.56505586942074
C         9.71787281942027    8.97875245286965   11.01736467095207
H        10.45161025706758    9.32562422971315   11.72901220810757
C         9.98207717873945    7.88043844097243   10.21533314548216
H        10.92950410547014    7.36939629096817   10.29068806552168
C         9.02070527739495    7.43202573218974    9.32536979120691
H         9.21462144185908    6.56720268289590    8.70854282604438
C         7.80509192482631    8.08468109036217    9.21897695232230
H         7.06036510408827    7.71147963132839    8.52986236817948
C         5.20863956428344    9.44639497789426    8.43330387959695
C         3.95728062889445    8.84341063193757    8.45991751336697
H         3.42034920418208    8.76671553496494    9.39666711971565
C         3.38885483133357    8.35300913194372    7.29655281674841
H         2.41370152245030    7.89180131798860    7.33479171711034
C         4.06929958531495    8.46112219599995    6.09667364826537
H         3.62874652094617    8.08164622552838    5.18740435376182
C         5.32240202920125    9.05586728477245    6.06222017063879
H         5.85796893692079    9.13533703347994    5.12796599520176
C         5.89323577517557    9.54384041688513    7.22155494874821
H         6.88061216273029    9.98458526998467    7.18489557265022
C         1.57788290463977   11.06737267565840    9.95696337419119
C         0.48312149632828   10.90966808053165   10.80906153674645
H         0.61073147120799   11.05980200082244   11.87456172554262
C        -0.76230251859632   10.59162191805254   10.30508267045960
H        -1.60098550468271   10.47912159409541   10.97626439065183
C        -0.93283017072945   10.42634787793285    8.93864812114425
H        -1.90843260480532   10.19190381806277    8.54060966334367
C         0.15140564307581   10.56251372319164    8.09033103934311
H         0.02650746200146   10.43282489175707    7.02549557118785
C         1.40326887076602   10.87671561367588    8.59282519996083
H         2.22838842503090   10.97579532342281    7.90399740477190
C         2.40926672410365   12.98708348800471   11.66592577633242
C         2.38117248387957   12.98347836771097   13.05399314068523
H         2.80596181481987   12.14636420476181   13.58868674411104
C         1.80674701721036   14.03071189950376   13.75325651914701
H         1.80205476711740   14.01238011759346   14.83242259246397
C         1.24536130967382   15.09174246270251   13.06677965452110
H         0.80378308144126   15.91559965503601   13.60596417639500
C         1.23105552444060   15.08425351361782   11.67997361193747
H         0.76731858429036   15.89629106870760   11.13989367417370
C         1.79805498870791   14.03623744998169   10.98124593395280
H         1.74440121867588   14.03422315985230    9.90095463303135
C         7.54169571618421   12.36342415873907   12.85553293710317
C         8.51533694557273   13.09614975491349   12.18620924076445
H         8.27560158802020   13.70849091061881   11.32846448870174
C         9.83361081859144   13.04857705502928   12.60905807768752
H        10.58104272426640   13.61939394306035   12.07820610844930
C        10.19387125575923   12.27908018206364   13.70090893116467
H        11.22362863196476   12.24635877775387   14.02211923596394
C         9.22694487929645   11.55509599834209   14.38099622904833
H         9.49760022143540   10.95497131139704   15.23613932489669
C         7.91243430482775   11.59903063496044   13.96175366499405
H         7.15596697164642   11.03049809528013   14.48470613637577
C         5.25094239442675   13.30889344982477   13.91431183021176
C         4.94243918309952   12.62084126532632   15.08408962093602
H         4.93918120384748   11.53756382916200   15.07443325017171
C         4.62146972097669   13.30824076910446   16.23856082944096
H         4.37792729324206   12.76376554417688   17.13843162303582
C         4.60937691412345   14.69366082546726   16.23586600633252
H         4.35447071490944   15.23512530610490   17.13412767712753
C         4.92937456519521   15.38325875813186   15.07890275823540
H         4.92896737618588   16.46303602373160   15.07588672717308
C         5.25737021379368   14.69862940699685   13.92197871350446
H         5.51470428092753   15.26009466169408   13.03673810742004

