78
CSD_code = ECEXOC | q = 0 | S = 0 | Stoichiometry = C34H40ClNOTi | MND = 8
Ti        4.22622480529800    8.83261767705497    4.81279270454638
Cl        4.97890815446774    7.82002601091436    2.99255116493006
O         2.57564082204064    8.34643723958437    4.81057657794454
N         3.63941335513875   10.42015744315704    4.08992440455063
C         4.95201107740871    9.41443973893377    6.91273930916751
C         6.13298062019818    9.13661005035566    6.16392621054652
C         6.10546030123869    7.77223307294631    5.78158615505613
C         4.91320379803557    7.19794038772024    6.29089205538436
C         4.21498134271250    8.19409956052551    7.02186889945770
C         4.73624936838402   10.69664400940752    7.67121695334617
H         4.57749473533597   11.54393055875880    6.99812823857602
H         5.61460146982803   10.91389309048086    8.28332226422298
H         3.87672654048859   10.62475227866244    8.33348120197518
C         7.32933603518046   10.04397158601118    6.09615793146305
H         7.95294202288366    9.82373531280479    5.23132089596271
H         7.94294049953016    9.89858996553188    6.99062044907875
H         7.03568854718249   11.09232032673275    6.05581508153801
C         7.22785030900099    7.03616405519071    5.11150124675658
H         6.86172624852909    6.16956099425956    4.56411080585692
H         7.94468978759122    6.68978987994459    5.86039001139649
H         7.75610422223330    7.67757866886460    4.40695062044559
C         4.47001786685898    5.76933852145971    6.15572953309881
H         3.38573528082091    5.71766587054265    6.03419443655883
H         4.74285783524762    5.19329508063225    7.04441318770631
H         4.93608830507919    5.29811852950254    5.29053514960333
C         3.00508478515525    7.91022109192316    7.86685180747737
H         2.73647445231644    8.76872578971498    8.48006601080571
H         3.21613884839602    7.07198753387119    8.53412032079984
H         2.14496821708529    7.63827317284641    7.24911283206080
C         4.49572229500755   11.48273589883816    3.92023793143921
C         5.83518823938173   11.18071572343664    3.59492812036049
H         6.10763539441316   10.14039801711907    3.42078749662687
C         6.77285658687623   12.17816959535723    3.42538707350698
H         7.78878074469339   11.91645717882651    3.16471330814145
C         6.41836713208728   13.51141691024938    3.56750811933752
H         7.15304833695165   14.29054045451430    3.43374038064537
C         5.10343769277609   13.82706770221076    3.86292380614108
H         4.80777323815322   14.86174863077837    3.96287628178467
C         4.15192426593153   12.83965483099202    4.03075944132991
H         3.13787466777663   13.12271087592384    4.25578186374308
C         2.19422705383542   10.53248230078959    3.85971279948736
C         1.57573228902508   11.36844361992572    4.98027414940915
C         1.73536956226424   10.91614778852306    6.28631991617908
H         2.26022733075359    9.98399285537873    6.44504925976035
C         1.22390377813950   11.62247573760017    7.35886715305111
H         1.34617361896752   11.23752318739386    8.36217046698940
C         0.54789946619979   12.81993952848320    7.16814746784887
C         0.41482311881356   13.28908870753966    5.86847387250266
H        -0.09168652114930   14.22746562268345    5.69162724123455
C         0.91950958569669   12.58160076809780    4.79180870565368
H         0.80673266340806   12.99975964288633    3.80293726635879
C         0.00591602968819   13.60016393529701    8.32642619350034
H         0.71137736719202   14.38102108917655    8.61264141880456
H        -0.15432679295648   12.95669871073467    9.18822360250784
H        -0.93440585410609   14.07969390001860    8.06342977924593
C         1.86728237244516   11.06050287447074    2.47154036585713
C         0.55359627119485   11.35702206309141    2.11583472129926
H        -0.24187726792633   11.23855142132787    2.83602927338541
C         0.23782747605279   11.79666253037518    0.84344754134829
H        -0.79165416237448   12.02229632231217    0.60225993888509
C         1.21922216783182   11.94566900293369   -0.12596208367690
C         2.52378474514532   11.61544410944467    0.21588662576185
H         3.30471694189914   11.69746680743544   -0.52631219220630
C         2.84278883450174   11.17277748018532    1.48589173879092
H         3.86590833640332   10.89836956320418    1.69712492243999
C         0.89123290455592   12.44080841152031   -1.50135663537466
H         1.28813143169392   13.44616188427971   -1.64264551248737
H        -0.18398075666913   12.47081557169280   -1.65930675561127
H         1.34005907056532   11.79781089395597   -2.25624559151437
C         1.70158182313959    9.00729083917048    3.95133593303054
C         0.26599071140879    8.84753816127432    4.48023057076459
H         0.03727498988016    7.78369003700994    4.51498040567733
H        -0.44559171963010    9.33513523778702    3.82191201158572
H         0.16285930314502    9.25463115567831    5.48224007526218
C         1.77034772381555    8.32212474831183    2.57139221110946
H         2.71480246900152    8.54471257284236    2.07657925248302
H         0.94960516845522    8.63857161862179    1.93332630845423
H         1.70727022199228    7.24441598197000    2.73016729883241

