71
CSD_code = ECEYUG | q = 0 | S = 0 | Stoichiometry = C18H30BrCuF9O9P3 | MND = 4
Cu        9.32833734236800   -6.48426789305238   -2.73442867964788
Br        9.96178184866080   -5.74884953660363   -0.68573558992327
P        11.00074877085759   -7.31021114577785   -4.07696123314644
O        10.63255870583541   -8.86252951397246   -3.83161167257572
O        11.68513613728176   -7.35153602052689   -5.54803658308232
O        12.36625620765256   -7.32974316613967   -3.12005709362790
C        11.60426285646510   -9.87821604344859   -4.14590374457166
H        12.48162987832275   -9.71545082174769   -3.50935800127305
C        12.00568536533815   -9.76305666437105   -5.61437215138136
H        11.11687398024591   -9.89505174217924   -6.23478890266972
H        12.73474205329488  -10.53396629839705   -5.86123653522929
C        12.60368639745136   -8.38598360856290   -5.87609307424960
H        13.52398184572413   -8.25737468795237   -5.29513941930787
H        12.82972814480591   -8.24632511106370   -6.93613038949844
C        10.98420404673938  -11.22893434248224   -3.81973712326029
H        10.61746672377551  -11.22966764349810   -2.79663358514448
H        10.16059129948586  -11.44481221972083   -4.49568315638792
H        11.73578808788665  -12.00650964144929   -3.92360258996216
C        12.93779690114570   -6.17810036781293   -2.56545365069471
H        13.93189063596217   -6.45531106574830   -2.19936606602320
H        12.33970022207225   -5.78147003248583   -1.73323084235687
C        13.10058861558417   -5.09218674269247   -3.61495783737239
F        13.83930178621262   -5.49654346267276   -4.65738487681771
F        11.91857742446836   -4.70188343252706   -4.11760031100111
F        13.69368884131297   -4.00147283284248   -3.12215643982611
P         7.99885285631916   -3.98437521819067   -2.56522826774032
O         8.58908082087483   -4.65709959348788   -3.93853359820248
O         6.80764644127394   -3.05986332616767   -3.19528826361298
O         9.21085764963487   -2.83416067953943   -2.44654371052694
F         7.74595264957405   -0.67522931949141   -1.51436022929497
F         7.25274658889692   -2.43688556505822   -0.38806690640925
F         8.49900971531517   -0.91240176081398    0.48212571229109
C         7.50706737003935   -3.15895186135808   -5.51357475563148
H         6.73791192653969   -3.90389131142875   -5.72945609385178
H         7.67587918958451   -2.54666556594967   -6.39918813244065
C         8.79560489882389   -3.88888857845688   -5.13573087183040
H         9.59257497363667   -3.16057825520712   -4.94153363854462
C         7.05012449420019   -2.28103967994453   -4.35532192402800
H         7.80633645409077   -1.51830815115096   -4.13865832515329
H         6.10232722982721   -1.78351082325392   -4.58136300304465
C         9.22299033879968   -4.86345441220942   -6.22382608597904
H        10.15565524503040   -5.35137843879900   -5.95441983853672
H         8.45826657207306   -5.62642606811789   -6.34924370680884
H         9.35949199797968   -4.32982457732787   -7.16050796901037
C         9.47966597942060   -2.27390463428155   -1.19644319304282
H        10.27022627624775   -1.52929255401071   -1.33129989377942
H         9.79302707774254   -3.03405397260285   -0.46789390913003
C         8.24349060836645   -1.57442895204956   -0.65200497285246
P         7.31757278953872   -7.06811363891295   -3.64951083070651
O         6.55457375429550   -6.47001034171767   -2.38966847903891
O         6.42402883912712   -6.56209411097352   -4.90298754580336
O         6.71589060824853   -8.64496850763329   -3.50112349708040
F         8.44642164682799   -8.40604759971020   -5.77876884400984
F         6.54845465439711   -9.31860962930077   -6.20862074865024
F         8.31907958932658  -10.53016266898700   -6.08100709212656
C         5.12445621730648   -6.34497986604177   -2.29268252769884
H         4.70506527541173   -7.35162846086889   -2.16172178558702
C         4.57119615112608   -5.71724346813019   -3.56839494524189
H         4.97126073051248   -4.70494076656532   -3.65317123495362
H         3.48346028111444   -5.67642723685108   -3.52109998996012
C         5.00579920904268   -6.54051342644081   -4.77358386104719
H         4.63093237721220   -7.56731056703130   -4.68790148565106
H         4.63834501855860   -6.10685931723419   -5.70791850300130
C         4.85707574343945   -5.48891552905203   -1.06554585400189
H         5.30776231938793   -5.94746016001786   -0.19045037685273
H         5.30294268511676   -4.50671913721960   -1.20250711726710
H         3.78685417885761   -5.38690815053277   -0.90936462384901
C         7.45819975787106   -9.68963298802215   -4.03948193187025
H         6.88948531339493  -10.61517629587413   -3.90023536644538
H         8.44661658944542   -9.77619237885185   -3.57190822619175
C         7.68583479723318   -9.48211841745957   -5.53052400726249

