29
CSD_code = ECEZOE | q = 0 | S = 0 | Stoichiometry = C15H9CrNO3 | MND = 9
Cr        5.53348822639334    4.65087408681087    2.28705831736693
O         8.32817862713213    4.72842771186790    1.26179765875974
O         5.32359211692531    2.75430413568131    0.00640963908162
O         6.50062101189123    2.14587996930002    3.57260946533157
N         6.68687007732101    7.03507205946019    5.23615427257779
C         7.24838970131664    4.73782180954079    1.67356128725702
C         5.35928353885780    3.51352768235454    0.87831477674159
C         6.11374357205826    3.13317827630259    3.11283511925427
C         5.03539083513536    5.87329514339432    4.23459860909256
C         3.94559225616696    5.04661841542757    3.84910802191573
H         3.47157212953290    4.40033408333120    4.57850664643976
C         3.38006346631383    5.23553801472851    2.59224054866804
H         2.46624769965908    4.71776930340727    2.32564567563458
C         3.96365408272743    6.12985426901081    1.65818050604561
H         3.47997997278662    6.26996455279293    0.69804449324943
C         5.09526733051849    6.87440817960170    1.97317736514130
H         5.49174295501385    7.60413651383698    1.27790991964318
C         5.60311417033170    6.81144517805530    3.30183759259942
C         6.60912752344608    7.50550795936017    3.97072356743900
H         7.26274119378548    8.27664581179877    3.61371919978705
C         7.53191882329805    7.40688029795265    6.23126035670077
H         8.24888269984531    8.17720292370016    5.99289109500058
C         7.45163278572587    6.81596282481665    7.45575195380120
H         8.12873059424250    7.12090110792656    8.23656904206070
C         6.49619445057752    5.81109033215570    7.70329110795046
H         6.44571470578054    5.34954636248903    8.67554848967091
C         5.64552517548778    5.42675164341253    6.69981252730539
H         4.90904194583601    4.65346278816001    6.85012093159314
C         5.73659833189267    6.03569856332337    5.44602181389079

