33
CSD_code = ECIBIC | q = 0 | S = 0 | Stoichiometry = C8H18Br2N4Pd | MND = 4
Pd        5.90514068966269    7.85400542553870  -10.89137045621115
Br        8.30026639501549    7.94234343089376  -10.83713152548741
Br        5.77339368574068    8.63517509901734  -13.15182008935889
N         3.02979319257689    7.90310969619045  -11.67867455550637
H         3.41947100535118    8.23245169056370  -12.56484301070736
N         3.52920587030626    7.21257377297361   -9.53988199670794
H         2.60622732336167    6.86296495747711   -9.30844420316751
N         4.54511726179867    6.90412122468534   -8.62410697289595
H         4.24388431327285    6.77918703295915   -7.66257082608233
N         6.78992684917326    7.10745451281827   -8.14708642076952
H         7.71666805173398    7.27281086131442   -8.54718384682093
C         0.95897126520854    8.68729637918647  -12.63097724496251
H         1.22664015829114    9.70876600922922  -12.37247913545045
H        -0.12358904622923    8.59636362417042  -12.61340292384311
H         1.30846563170487    8.48267115290992  -13.64013248983107
C         1.24687960564377    6.26086513180873  -12.01572136513015
H         1.72151955188329    5.55754083199373  -11.33422712361738
H         1.59626303855995    6.04506069015570  -13.02225084570153
H         0.17168671418482    6.10743169000664  -11.97992397607969
C         1.58901532373894    7.70690177765285  -11.64873080612006
H         1.22199511555628    7.93133186586552  -10.63792329136678
C         3.92204043173450    7.66580498930689  -10.74068941906404
C         5.79705774931689    7.20988376114067   -9.00555166535157
C         6.76690100905324    6.66095469486555   -6.76391093200069
H         5.84385893226608    7.02189908658819   -6.28866284178188
C         6.80913937773331    5.13254912171340   -6.70485276888011
H         5.96896543578459    4.69828186416328   -7.24273828442842
H         6.77610959200078    4.79331597478423   -5.67307084601054
H         7.72826875242434    4.77299657825840   -7.16054186383538
C         7.96309391292003    7.27660384604334   -6.04785698841250
H         7.92733302047650    8.36134234381470   -6.11153126650879
H         8.88899011369065    6.93369453462647   -6.50329347692542
H         7.96459967606108    6.98954634728424   -4.99991654098151

