24
CSD_code = ECICAV | q = 0 | S = 0 | Stoichiometry = C5H12Br2N4Pd | MND = 4
Pd        1.76237843268408    2.97154419693929    3.73561845089236
Br        3.91677256787937    4.01619903732523    3.65387221928757
Br        1.88564277982034    2.26490241226706    1.45024520522698
N         2.30950376796284    4.16742974524459    6.41382898521595
H         3.18929218056422    4.44820647062675    5.98068535025130
N         0.30764066789695    3.10052304799814    6.10733812769350
H        -0.02477779265471    3.25440768031666    7.05276895295688
N        -0.55326906843202    2.37115174133576    5.26737385979961
N        -0.65730881778186    1.38497933000787    3.13652863669394
H        -0.14614886178968    1.36761570689914    2.24691098781057
C         2.06829344138862    4.54435128198092    7.78943628150293
H         2.93432079353540    5.08412519194053    8.16081516569587
H         1.91573796335593    3.66248013944087    8.41850310551509
H         1.19390413008537    5.19679189244553    7.87120349079752
C         1.48960890835433    3.49680400107538    5.62613876482898
C        -1.82487054605868    2.05554936106264    5.88250750963548
H        -2.58145988286339    1.89704274567022    5.12284791309469
H        -2.14601606050695    2.90176292925363    6.49449129298206
H        -1.75180587064936    1.16819766111216    6.51905108755377
C        -0.05758393087415    2.13136978010819    4.04423135339098
C        -1.85896252149439    0.57589237284676    3.15873035844271
H        -1.79203619014301   -0.13682235959840    2.33917193864163
H        -2.75791569894294    1.17902333101946    3.00368664706083
H        -1.94654039133654    0.01477230268240    4.08891431502864

