30
CSD_code = ECIFEB | q = 0 | S = 0 | Stoichiometry = C7H14N2O6Pt | MND = 6
Pt        4.23283976199308    1.52691625766667    4.62442304129187
O         2.49078836078982    0.81157461445726    5.38083428765604
O         0.98082231085387    1.18953494773039    6.94683744855605
O         5.95726373044133    2.27333345522697    3.93127184023429
O         7.56004563967712    1.85966571426215    2.46866850219740
O         5.22926145587130    0.25540512041663    5.84801704993856
H         4.58120294079551   -0.27962842568859    6.31394914812401
O         3.21570469393202    2.84175229630762    3.46846172192781
H         2.28740305691693    2.59597917251746    3.48315628273705
N         4.08411731080413    2.81652658828898    6.19840539503071
H         4.44175537800147    3.73799512848147    5.93916005268617
H         4.69656940641821    2.40962096490569    6.91363925743996
N         4.49579571936767    0.19535889125687    3.10836179643740
H         4.14982177275324   -0.72385321316158    3.40030928703887
C         2.68465012114954    2.85978236703301    6.63897058029591
H         2.15003374294684    3.62631338491994    6.07086678320476
H         2.58798921957714    3.07897851599671    7.70565187476867
C         1.96766213436780    1.50529289925717    6.33118840632867
C         3.94396889130066    0.50684163102144    1.78073304340923
H         4.12971582463313    1.56558547576872    1.57930385533266
H         2.87059103336217    0.31848544342297    1.75345884100543
C         4.74923128248509   -0.38268954138312    0.83293514823674
H         4.75679562337291    0.01333524142043   -0.17906409990143
H         4.31992440551485   -1.38553901701276    0.80371580688938
C         6.15141617099037   -0.41216141722663    1.45948180210120
H         6.84460227294216    0.25365833672785    0.94338628650247
H         6.57492024099010   -1.41464633018546    1.44798783760623
C         5.95646063881110    0.11047971056653    2.88803793277317
H         6.41302330142400   -0.51785677241383    3.65828296078282
C         6.57122355751541    1.53525855942013    3.07916782936846

