54
CSD_code = ECIGUT | q = 1 | S = 0 | Stoichiometry = C22H31Pt(1+) | MND = 7
Pt        5.00383450214789    6.52135812263012    4.40575183010997
C         4.64644091967719    7.18738136093082    2.44917094150964
H         4.40159561846983    8.25151516087921    2.40983578617249
C         5.97655789965877    6.79581351261274    1.80724193505130
H         6.42965447745816    7.56434853535941    1.17890903527815
C         5.62402656488523    5.53776278374241    0.99759781610371
H         6.46800409801325    4.87801299991683    0.80780959933875
C         4.92043745072003    6.04780779020303   -0.26621850784785
H         4.72671403601577    5.22435953600114   -0.95168266068952
H         5.51378563927396    6.79072139696286   -0.79572172604725
C         3.60562810488966    6.62902203827268    0.29140582948309
H         3.53672920619155    7.70640785014577    0.15083802893912
H         2.73678355200908    6.17375846442275   -0.18073456824730
C         3.64736970925597    6.25263393009455    1.78876210168100
H         2.65719991146219    6.20710538709085    2.23773449836618
C         4.43551033868518    4.94110869923055    1.75612331087023
H         4.66200469162810    4.56330959036627    2.75887030695334
H         3.93480317322529    4.16114936905107    1.18719458124443
C         6.76970480519775    6.62581624390847    3.07255893024040
C         6.91918470834521    5.51006268496328    3.88363844731341
H         6.71927319306059    4.48839444373989    3.57642642423754
C         8.10324905581349    5.81068106558277    4.77948613848477
H         8.21819855082279    5.17738699798568    5.65628589054880
C         9.32778519691511    5.78147014668877    3.83259316740488
H        10.24561900021118    5.84806791543278    4.41344933562665
H         9.36179331155003    4.86297775752849    3.24952049450191
C         9.12296558749386    7.03055849985817    2.95705212896404
H         9.04060554516999    6.79167679867415    1.89819234457742
H         9.93461826526027    7.74412283077607    3.08311760874924
C         7.80805288975999    7.63131010837925    3.51148142734806
H         7.62841125360330    8.66548777427464    3.22795291327430
C         7.94915646946168    7.31826594564552    5.00178498984998
H         7.05569345809551    7.59211085215990    5.57356890092745
H         8.82611271405568    7.77572507867135    5.45311239515551
C         2.96390799280391    7.10452990006405    4.97976108977007
H         2.42586322782298    7.36270943319815    4.07033852769516
C         3.86437734683119    8.04889298099987    5.44810924741938
H         3.98846498897886    8.96045456874185    4.85808661010923
C         4.36406912978613    8.19485685557053    6.86064577646727
H         5.29222206654442    8.77381693997643    6.83876687946018
H         3.63614273293910    8.80275560908724    7.40723974009816
C         4.60494048226622    6.88296745152199    7.63712411271901
H         3.67298459571837    6.51217635082576    8.06049369287918
H         5.26857942389127    7.11054164438616    8.47258697112209
C         5.23965826813379    5.80901402718662    6.79939737209571
H         6.30298170371414    5.66685210814129    6.95633603511543
C         4.57786921170765    4.89197894277392    6.05261022099341
H         5.14174266047579    4.02971107753250    5.69664752830928
C         3.08441438401572    4.73898248838592    5.91035609987565
H         2.88552388206027    4.15521179790815    5.00678560055408
H         2.71996725726486    4.14511245209613    6.75403766863078
C         2.28586687959634    6.05489732600479    5.83095201672432
H         2.09992818967664    6.45737315960951    6.82569381425619
H         1.31289167728294    5.82617321380780    5.39422132023582

