87
CSD_code = ECIGAZ | q = 0 | S = 0 | Stoichiometry = C30H50N4P2Zr | MND = 5
Zr        3.99157236496536    4.55945064996915    7.01930226140943
P         5.54014793007712    6.46574459545849    5.63502270734034
P         6.80954632915269    4.56575019255679    7.09152605230574
N         3.91106786995055    6.28876420278515    5.78630038654981
N         5.70242286676410    3.59194716393076    7.83276925369412
N         5.92252636673014    6.10164316309897    7.34138491256058
N         5.97723946642575    4.72216076697748    5.50011579208599
C         6.49511987653592    7.15969694968874    8.16221029991164
C         5.42239011071615    8.23915886841006    8.33301832706711
H         5.20115619874124    8.68548500107463    7.36366768904088
H         5.76017456361408    9.02152553191403    9.00896495293093
H         4.50878871377863    7.79628377832884    8.73045823421534
C         6.88228053717089    6.57189344943267    9.51936170320952
H         7.69700365047844    5.85979180270882    9.39299118480772
H         6.02645775938456    6.05871591542251    9.95189781462105
H         7.20568336997514    7.35592102483724   10.20050579797183
C         7.74170077205698    7.76549920140878    7.50630503848785
H         8.47976041868810    6.98487500066321    7.32651142046096
H         8.18294395591467    8.52467944559694    8.14837829369697
H         7.48083080014258    8.22221860313362    6.55272361013684
C         6.65578270665075    4.27016040560727    4.29134188532798
C         5.77669966846452    4.60621599510983    3.08319653572984
H         5.67496330783522    5.68767063081701    2.99758560408396
H         4.78605019950812    4.17037487745008    3.20464606666628
H         6.22128497984204    4.22601389754175    2.16589584055329
C         8.01714136619576    4.95653498739348    4.12687128254547
H         7.88220734506272    6.03600999098002    4.08044978878340
H         8.51228604360367    4.62455998580267    3.21684147924190
H         8.65485371015320    4.72401332067245    4.97803022585130
C         6.85544686074083    2.75589459615552    4.38154241010048
H         5.89851491098145    2.27071976336703    4.56747376735777
H         7.52879966255314    2.52171183188529    5.20348633558825
H         7.28012475370176    2.36499372458253    3.45932422692304
C         2.93775745405101    7.06008518079532    5.02951573072158
C         1.65558600292135    7.12473747628965    5.87411403483598
H         1.30731701958070    6.11159424321037    6.09361542513774
H         0.87146142507627    7.66396334922504    5.34603983399968
H         1.87023049083197    7.64208323076981    6.80766017833552
C         2.61382237284002    6.38630578649260    3.68371960547010
H         2.34988789060528    5.34201049648959    3.84169234580894
H         3.47802906679879    6.43428727203977    3.02607731778417
H         1.78154383494624    6.89053465798736    3.19680344638157
C         3.42460005479873    8.48861277898072    4.75382908692450
H         3.62854067162156    9.00104205634197    5.69159169665479
H         2.67185954002855    9.04895890331451    4.20376066933300
H         4.34077120043583    8.46296037945181    4.16584904700411
C         6.10575080844027    2.45580461564280    8.65379265153939
C         4.84516340615478    1.86158034649640    9.30200940039077
H         4.09417198867839    1.65462459675789    8.53925855185548
H         4.43044813047478    2.55201879127800   10.03477034229751
H         5.08726913541640    0.93165704817685    9.81266402167315
C         6.77765446196602    1.36932341244719    7.80036520586686
H         6.10866401089562    1.06541340341704    6.99919569196779
H         7.02135506770103    0.49912692391571    8.40596142838315
H         7.69772312894465    1.76158861865329    7.36959983946812
C         7.08390699807051    2.87914118321163    9.76009033187992
H         6.63914075792548    3.65158753795570   10.38334394651818
H         7.99492503956315    3.27517509147845    9.31345959849974
H         7.34323845507129    2.02771173826963   10.38568952586247
C         2.40310413859138    4.65838576738090    8.61514664148589
H         1.39721956382182    4.81540818806105    8.19836464986258
H         2.43792972179335    3.67596154252603    9.11017646559452
C         2.73406002511304    5.72258967778591    9.56290688063480
C         2.07373633209402    6.96394397195168    9.55274687202985
H         1.28190361819930    7.13181918583732    8.83413118607836
C         2.37890595076982    7.95442517825810   10.46538104833650
H         1.85099774920261    8.89716131419090   10.42677235172850
C         3.33714374777662    7.74087457048176   11.44402510518580
H         3.56554559036317    8.51030638096498   12.16569355354530
C         3.97986874495207    6.51374645646778   11.49823655109275
H         4.70935247726859    6.32444428508335   12.27407222632231
C         3.69009214168687    5.52711489055886   10.57620564496140
H         4.18509200213003    4.56393116842305   10.65102761826903
C         2.81733670239742    3.20860160300924    5.62648009423786
H         1.82712748950533    3.66511646782505    5.47188845689672
H         3.34193800195597    3.10779118449361    4.66490862253633
C         2.69131878494738    1.91657872411446    6.29546698870603
C         3.57940657058626    0.85819888802049    6.03750098022938
H         4.35002789106380    0.98937285370080    5.28662086577770
C         3.46926525392912   -0.35377925466642    6.69039047009351
H         4.16930193985348   -1.14704731816182    6.46812852197949
C         2.46090340878683   -0.56408348649580    7.61765581896699
H         2.37435636888852   -1.51182033912709    8.12675321957374
C         1.54810338912243    0.45134180768750    7.86330143670352
H         0.73993112696973    0.28842388397414    8.56250317004500
C         1.65343989247916    1.66372863013520    7.21241465741139
H         0.90910352536064    2.43155534366919    7.38922976586357

