29
CSD_code = ECIHUU | q = 0 | S = 0 | Stoichiometry = C9H16AuClN2 | MND = 2
Au        6.97754593861084    4.81201556886624    1.61879196214694
Cl        6.56384371709221    3.27699717466044    0.02972390723022
C         7.34943917007563    6.18443382749120    3.03606590550645
N         8.52814290384753    6.42897456217606    3.63525716896126
C         9.76316916033401    5.72627450286010    3.35090471937711
C        10.27739716271672    5.02680315765494    4.60607368264518
C        10.79548137128851    6.69036815599468    2.77170144013856
C         8.39378035229004    7.44326606298252    4.54289416612933
C         7.09883689266947    7.83512014824446    4.50511189175756
N         6.47394465393391    7.05118473613536    3.57473026221694
C         5.07180802601308    7.14014457164285    3.21972791528870
C         4.19925832229082    6.83212694072374    4.43381633038951
C         4.76254202984377    8.51320948965611    2.62872497329337
H         9.50825655415330    4.97354849552734    2.59537804007581
H         9.51466321661282    4.36411971253185    5.00697704669997
H        10.55273055596321    5.74809498699631    5.37175539679540
H        11.15376404015276    4.43416875239934    4.36072710520658
H        10.39179704095744    7.19023140905581    1.89471535630931
H        11.68401271039995    6.14094922090480    2.47560864889164
H        11.08226009231330    7.44234494757528    3.50292290769564
H         9.20569120432596    7.80622791536006    5.13730189716805
H         6.59390067546797    8.59708654201342    5.06068921937194
H         4.91121235872749    6.37196047203220    2.45379943657341
H         4.45469696201507    5.85755305461723    4.84302454389381
H         3.15423214207059    6.81819816659088    4.13869804436539
H         4.32853951537967    7.58322844263520    5.20991486472141
H         5.41828771298643    8.71609307870825    1.78522193942509
H         4.89220738184699    9.29786007328157    3.37072521508971
H         3.73485813557816    8.53701583069099    2.27871601262951

