86
CSD_code = ECIHAA | q = 1 | S = 0 | Stoichiometry = C38H39O8Pt(1+) | MND = 7
Pt        1.46366345697626   14.30023329264303    7.81566385598369
O         2.53898588444892   20.06985287730070    6.40515212302626
C         4.23698855848695   14.47993585956880    7.37670056426257
H         4.91209423050648   15.11310244942485    7.95505791531815
O         5.51106123926122   16.12310481452792    3.80822210074302
C         4.86984114607409   17.16129330246907    4.45939926553603
O         4.24530573157774   21.08937659601515    7.46855465525151
O         7.60419178148587   16.96650974553249    3.88692442047366
C         3.35851054914142   13.51414862018291    8.17255760883253
H         3.43070286559099   13.59698088634069    9.26381202325536
C         2.36137644801770   16.21605463933558    7.42294246047706
H         2.64397376152257   16.63431787877020    8.38798279656083
C         3.73280838909212   12.13765516773788    7.62382418566509
H         3.05574492302750   11.31831161286355    7.84598051668960
C         2.92595580896365   17.81947492279515    5.74560055178823
C         0.56527554415701   12.62620639929602    8.94837674003339
H         1.41526519115248   12.09568508087677    9.37336818251408
C         3.13847239649811   15.27929322196125    6.74057985122752
C         4.53730930277599   19.45453869484423    5.13500534213785
H         4.88855631881370   20.47331703508398    5.14806296399222
C         3.34302173218055   19.13319363310884    5.78501936390064
C         3.67970119477577   16.85367138952419    5.08470268548709
C         3.08492109052023   21.04095616700127    7.18556556350565
C         1.49917620912664   16.05416260518158    5.23249209008521
H         1.22783486367694   16.50752598050353    4.28133063419944
H         0.77526069306610   15.27209890891620    5.49509903456726
C         5.02616764054766   13.55157648585717    6.43477601860014
H         5.48841152914965   14.04964599070310    5.58818329819821
C         0.30069726944334   12.46308287188744    7.60255958530497
H         0.94505875813431   11.78553078229097    7.03774232770243
C         7.08694098280426   11.16054578455878    9.26577710603158
H         7.52505635371610   10.49813283857358    9.99463394551764
C         5.95503470917556   12.81595353473839    7.36761498858528
C         5.28744699420112   18.49304856218568    4.48632952106661
H         6.20838313843797   18.77859043251347    4.00655896641162
C        -0.41774144019137   13.12551330248266    9.97943215085758
H        -0.15847974749977   12.68254876168511   10.94168761605879
H        -1.42425272817572   12.79292837506228    9.73235604457186
C         6.83631902023546   16.10642662537582    3.55898497158646
C         7.21306312542283   14.83139223367465    2.85848905856775
H         6.34187818606865   14.36458417296491    2.40988940821746
H         7.65626123635853   14.15061402665428    3.58428589020463
H         7.96316315980473   15.04580584028486    2.10240122974980
C         1.73164124028226   17.09375927998729    6.34591123915793
H         0.90155181813091   17.72895309636515    6.64161853185104
C        -1.80014792498358   13.96414189847176    7.38958090057431
H        -2.51174486194103   14.23573410835520    6.60814054304843
H        -2.38137313723077   13.70215539125967    8.27163949081026
C         2.94563673841369   15.53787674800889    5.25573128737466
H         3.22389768517488   14.75591205317967    4.55861314118960
C         7.87397379810989   12.02952789073512    8.54641383236374
H         8.93941978715444   12.06444642719886    8.70702400851491
C         5.70303389372234   11.11967784951552    9.07375960431338
C         5.15017512440001   11.94095200918934    8.11383345759913
C        -0.36341926345176   14.65504450302598   10.14271308502533
H        -1.21948853395163   14.98834795655988   10.73726553857376
H         0.53506842851065   14.90893238953360   10.71610473857169
C        -0.93727967777010   15.16011654579864    7.68537299010612
H        -0.95598013119513   15.93622469189689    6.92795850782983
C         7.31305486208102   12.88505172045247    7.59381486610727
C         2.02215280775551   22.00138572913550    7.63033637162490
H         1.04046987127772   21.54080895526439    7.58413033316446
H         2.03867529128149   22.86177333997354    6.96292117950169
H         2.24282351836607   22.35002293782523    8.63516605258251
C        -0.33819013216230   15.44956625505572    8.86374103927918
H         0.05103838827953   16.45794301116161    8.99359909164751
C        -0.99655159675900   12.74858142517737    6.88617162596547
H        -1.62319783683861   11.85376619529712    6.95302525264816
H        -0.77136111559924   12.89005595407323    5.82370412744888
C         4.00024696765484   12.44750909999704    6.14640979063623
H         3.10570496308955   12.79625080921941    5.62931543333440
H         4.43188848118800   11.60367101016733    5.61161495600411
O         5.01409561056734   10.17200968118460    9.81785707418163
O         8.18410634819313   13.72307416369899    6.91565831497503
O         3.26981056602868   11.47654464601227   10.39084918492651
O         7.02845668990945   15.58082251704687    7.43052271014748
C         3.85740875807369   10.42528345893300   10.44078983565289
C         8.00397314973500   15.06539006946686    6.95409348079632
C         3.41182416745051    9.22241131088008   11.21848591187595
H         3.92697633099525    9.22222294786073   12.17788571098550
H         3.67703159080615    8.31096500964854   10.69128100918539
H         2.34213146816832    9.26958310921607   11.39933187528083
C         9.17651846619466   15.77092483199643    6.35432213492473
H         8.84291357629531   16.43437338284884    5.55814526093339
H         9.90072079842487   15.05734658725123    5.97469563115901
H         9.63430552762287   16.39263659877685    7.12107122537492

