68
CSD_code = ECIJIK | q = 1 | S = 0 | Stoichiometry = C29H35AuN2P(1+) | MND = 2
Au        2.20796108661844    7.96425316306044   10.53554884591747
P         3.09985853996343    5.89073817031158   10.78345395453934
C         2.71846403259193    4.76255018894333    9.41573628098935
C         2.25351587582127    3.46527683641860    9.59772228675988
C         2.00196708564204    2.67049600855617    8.49278017555993
C         2.21157947567489    3.16253788517886    7.21498956277850
C         2.67458775864910    4.45691632323292    7.03275393026971
C         2.92421731938839    5.25791594133826    8.12979059097163
C         4.90479790945816    5.80244140058749   10.90524285147511
C         5.58450077587164    4.61555409867456   10.64198613801004
C         6.96069177355754    4.57564815232881   10.76456194109121
C         7.65999129005706    5.71079382029423   11.14626070999867
C         6.98506556499986    6.89296863900872   11.40448984034305
C         5.60829452259699    6.94183727042266   11.28165852115818
C         2.48245686215633    5.04880623885222   12.26356306098019
C         1.09651255159472    4.97570178994329   12.40175718592587
C         0.54440171623121    4.37544359565426   13.51590834286680
C         1.37190339131978    3.86067924196606   14.50333833875048
C         2.74813619219345    3.94840401700965   14.37549133919669
C         3.31015772025203    4.54420472253080   13.25896629677862
C         1.33968644348788    9.83811539801835   10.32821112666182
N         1.02838270412501   10.46314330434390    9.17427107227479
C         1.26598515948511    9.93505883340542    7.82212825955039
C         0.49124559044287    8.62519044819809    7.64965829149955
C         2.76987686099764    9.72537175855169    7.62500940761235
C         0.77321535973922   10.92922610201449    6.76877558293571
C         0.45535106679141   11.67221981370410    9.44855357834943
C         0.41033690766826   11.79727851260990   10.79471739821211
N         0.95673709237558   10.66293586401568   11.32441075417787
C         1.10018329595223   10.39489224306887   12.76389829069907
C         0.29244967435537    9.14534407605320   13.12649474930852
C         2.58383852289271   10.21234545090462   13.09533960041527
C         0.56365807592865   11.57330831534141   13.57881828666895
H         2.09042911914704    3.08053473914559   10.59485277853549
H         1.64302974671398    1.66200777932162    8.63163468786031
H         2.01377960876203    2.53681436193793    6.35847508701434
H         2.83824826750223    4.83893864191621    6.03659695511650
H         3.28698756591793    6.27079750427021    8.00225519947867
H         5.03374634178403    3.73408795605338   10.34308747815675
H         7.49014675242218    3.65708846064332   10.56239065592792
H         8.73430250493645    5.67368664115185   11.24010340644025
H         7.53128289922127    7.77631269215593   11.69843255313859
H         5.07088270965448    7.86226854749584   11.47542624512984
H         0.46276187913251    5.38343891362149   11.62259634654650
H        -0.52818272788769    4.30976920787405   13.61798414445487
H         0.94089288550451    3.39294446782870   15.37500352320476
H         3.38924118811195    3.55132277329080   15.14768208610161
H         4.38424787672024    4.61467530984782   13.16046125873561
H        -0.56893295314055    8.78813023335173    7.82972560998111
H         0.84442413759284    7.85987405602218    8.33715503723915
H         0.61497189671932    8.25712250305400    6.63548656320307
H         3.30179497461241   10.66563304715675    7.75141690292446
H         2.96001574412976    9.35465844055053    6.62206220029423
H         3.16519009572150    9.00813724091195    8.34092504708524
H         1.30475700840882   11.87530278950910    6.83479739021884
H        -0.29616999194430   11.10410996375018    6.85718665068766
H         0.95985047697465   10.51373565266568    5.78242484510538
H         0.12001472824795   12.36062395086616    8.70513966645870
H         0.02965746633812   12.60836619490307   11.37456276298736
H        -0.75077347878069    9.27593310610160   12.84796212556005
H         0.34449072061292    8.97429929313020   14.19764880821102
H         0.67863913070268    8.26283668782787   12.62124616503116
H         3.15276306659592   11.08232618992461   12.77503632989874
H         2.99006434125711    9.33074970599945   12.60511392338596
H         2.70802231294729   10.09421607558310   14.16764198304384
H         1.11338620703532   12.48679106552282   13.36557507721335
H         0.68703701016282   11.35217676029351   14.63536104897859
H        -0.49610771143859   11.73329142157673   13.39626286395763

