77
CSD_code = ECIJEG | q = 0 | S = 0 | Stoichiometry = C25H39AuN2O9S | MND = 2
Au        2.13543062595468   -2.34981033230747   10.89020863208562
S         2.14002164661230   -3.72756498637703   12.74785329464833
C         2.90685177540950   -2.60599996146011   13.91040580003461
O         2.13661128727921   -1.42948395770498   14.02912610730949
C         4.32735368500314   -2.20145445428228   13.48510697878114
O         5.12637639757042   -3.34474571277946   13.25322033529582
C         5.24047946659344   -3.75171397717941   11.98142331620151
O         4.85783894709832   -3.12318634327659   11.02511451127521
C         5.91708491887461   -5.08860417909841   11.91124768413168
C         4.95484352446904   -1.32279076970393   14.56116014356671
O         6.17750448410364   -0.80155831398136   14.04989168026451
C         7.16149362112547   -0.51817468129739   14.91779756259468
O         7.11601242152472   -0.76172987941466   16.09314850649555
C         8.29871071514781    0.15925805426104   14.20790352244992
C         4.01156328085462   -0.14943461606113   14.87736839256076
O         4.44490881583313    0.50769329562100   16.05783257826977
C         5.17569893005852    1.62458442305414   15.93367642400453
O         5.44970328563202    2.12705453651770   14.87247603878370
C         5.57670752923251    2.14260369919479   17.27843030044959
C         2.56670339438730   -0.62511726614151   15.09727803912682
C         1.58779790295317    0.55112188571337   15.24642914964368
O         1.93844802857977    1.66994117832178   14.44352090467166
C         2.42672472212202    2.75631143487307   15.07025499387935
O         2.52918069309790    2.85071344903542   16.26381998883547
C         2.83300094449407    3.81068183627260   14.08218998493702
C         1.96934349117988   -1.13912071958541    9.22373512649357
N         1.92136140212013   -1.54756187335123    7.93915695944715
C         2.11395070005574   -2.92857360371304    7.47777908551277
C         3.50912957406429   -3.40041220310911    7.89211149295497
C         1.02466844355494   -3.82099313433941    8.07744867313853
C         2.00836985122111   -2.99610696237148    5.95130984390919
C         1.69550912896421   -0.47450212576381    7.12208807118532
C         1.60380534051851    0.61791166105329    7.91317523441677
N         1.77437465926830    0.19657151186463    9.20315560268624
C         1.78592911687074    1.07508743515073   10.38037246473634
C         3.15784155829014    0.97674104538339   11.05017376515186
C         0.67617172069067    0.65816180271136   11.34797531013631
C         1.54490918374446    2.52766919336574    9.96094461843045
H         2.95468132152406   -3.13047771939336   14.87747651588430
H         4.25967549144815   -1.62542493584236   12.55222619902711
H         6.40307607586566   -5.21050673367869   10.94800412389094
H         5.14352923771147   -5.84796801755166   12.01706989803226
H         6.62500905582495   -5.19702966439309   12.72672736267750
H         5.16002963817222   -1.89803331420483   15.47310013841363
H         9.19887167625905    0.10311627084245   14.81191017519909
H         8.02214137973358    1.20318033075535   14.06539309036273
H         8.45317111178113   -0.29239349909437   13.23279235152251
H         1.55562212697244    0.87221076956370   16.29200752066704
H         0.60392609927041    0.21277767120967   14.91507374027696
H         2.71034944755669    4.79445165461902   14.52503539206337
H         2.25688542854126    3.72235933307006   13.16676962821954
H         3.89023317215342    3.66043985887525   13.86146636582442
H         4.05640079822645    0.54833710189325   14.02983218769309
H         4.67630081079449    2.43572936004214   17.81361222126736
H         6.23643140334994    2.99686985440935   17.16387480417891
H         6.07023987656671    1.34713069041829   17.83076622314717
H         2.54280707779199   -1.21183955149865   16.03092756907030
H         4.27013931011998   -2.77044188111936    7.43612025426443
H         3.63419987986047   -3.36172269617047    8.97004769722165
H         3.66244286776873   -4.42386701780787    7.56249711198934
H         0.03813813990173   -3.43662578345326    7.82596915993799
H         1.11682857479378   -4.82855831016988    7.68271240542920
H         1.11564684112018   -3.86497993154978    9.16055514459415
H         1.02383953754515   -2.68781524849865    5.60615309706317
H         2.77054463457694   -2.38564875792056    5.47215790608732
H         2.16336654531599   -4.02532933581718    5.63910969861787
H         1.61230926552430   -0.53433535947048    6.05934409808779
H         1.43037435010486    1.63256761727715    7.62941786291718
H         3.93629233205701    1.35353105697180   10.38950871495030
H         3.16109450162131    1.55534193182639   11.96877298357450
H         3.37979078731507   -0.05932293274871   11.28976501157848
H        -0.29028732900679    0.67454095923012   10.84815303764447
H         0.85424863285456   -0.34320089659404   11.73271232721727
H         0.65187402210396    1.34233945013479   12.19092407385710
H         0.57115789192138    2.64823496865441    9.49123515829934
H         1.56530027658250    3.15287268146549   10.84944378179050
H         2.32130249358444    2.88322363721359    9.28702384896635

