58
CSD_code = ECILIO | q = 0 | S = 0 | Stoichiometry = C28H23Cl2N2OPPt | MND = 4
Pt        3.70479649724566    6.37886167634794    6.69122706368072
Cl        3.19743019358466    6.13236059023048    4.49638378836977
Cl        1.50355824590294    6.41994073848742    7.28933544679192
N         4.14856992193564    6.59120108960595    8.60793124094638
C         4.04524562417135    5.54587416597086    9.43030062141661
H         3.61653308322398    4.64521460987817    9.00768149074882
C         4.46144042216902    5.58998266687949   10.74253948687226
H         4.38326360457329    4.70540954987023   11.35416230390504
C         5.01532232284566    6.76643872817652   11.25675720529938
C         5.06654174060479    7.86648665766727   10.39426901908398
H         5.43271042341842    8.81996789915162   10.73905923699238
C         4.62391542319186    7.73832354531214    9.09764931649747
H         4.65237730436278    8.58048703265729    8.41702423513201
C         5.52745832656867    6.84178091177133   12.61962327796784
C         4.95681408310921    6.11790523305148   13.67126509351171
H         4.08657629483569    5.50334543674074   13.50428256791515
C         5.46857933841901    6.20552761326871   14.93929171256572
H         5.04895233814362    5.67286078840839   15.77876129363876
C         7.11626847239532    7.68143701593138   14.21995191741817
H         7.97297717280382    8.27310617152181   14.50401371778728
C         6.63179910199285    7.63834632084447   12.93935567710791
H         7.13300429011785    8.20603401035911   12.17148555844505
N         6.54742901462614    6.97496681804186   15.22861186018663
O         7.00596453538156    7.03112291170304   16.39069805853538
P         5.89401178843062    6.36759775730757    6.00326209469411
C         7.04420632696474    6.82008335849897    7.34362344472769
C         7.26583869566972    5.87795559347688    8.34719063633634
H         6.84559003103352    4.88583798041013    8.24039022966381
C         8.01577606912690    6.20481587968983    9.45935284981510
H         8.18512663069057    5.46991766366083   10.23271820056239
C         8.55008866009496    7.47875549575022    9.58292238160926
H         9.14310958387886    7.73231282389147   10.44932909401181
C         8.33144774024076    8.42034360323614    8.59162766969564
H         8.75029111768587    9.41152555189996    8.68572614600212
C         7.57567682878286    8.09715912703235    7.47753237979681
H         7.40260898330571    8.83298945540951    6.70455224729294
C         6.18792284242190    7.62402761578698    4.72837011129090
C         5.34572478556950    8.73307264759559    4.74526267078260
H         4.54520711141541    8.77625919562501    5.47985886570041
C         5.50591445517209    9.74041226066766    3.81381876155944
H         4.84692002641085   10.59566170080796    3.82283661231426
C         6.50504925846026    9.64163359121661    2.85766770259496
H         6.62632206838925   10.42326874499093    2.12253137895431
C         7.33779331707469    8.53516422908432    2.83291992935000
H         8.10663766558547    8.45484158576501    2.07854965988787
C         7.18385518057370    7.52374438649744    3.76539579255558
H         7.82454450432460    6.65420917186762    3.73454604796981
C         6.62381850677492    4.83330797449402    5.36678176854670
C         8.00281308368860    4.63351067112621    5.37335832412738
H         8.65755047155092    5.39118956380780    5.78340542400787
C         8.52864060253040    3.46005100726926    4.86531707704683
H         9.59800130541537    3.30633716155943    4.86748920463730
C         7.68750987401608    2.48318696956321    4.35507182926999
H         8.10455862952172    1.56913310881743    3.95899251041845
C         6.31582238120611    2.67666542347796    4.35669858192531
H         5.66107046193740    1.91369539464766    3.96348975858084
C         5.78145449888347    3.84837153187772    4.86276003887730
H         4.71256873752398    4.01757959134126    4.86468938457907

