64
CSD_code = ECIPOW | q = 1 | S = 0 | Stoichiometry = C24H38OsP(1+) | MND = 10
Os       11.99863839262248   10.15728445741777   11.20608643520734
H        13.50797245197150   10.05068482055331   11.48040605986880
P        12.06036724190894    9.52368697578980   13.54536798799074
C         9.16821240498181    8.38729666051489   10.76838815014847
H         8.89283707890522    9.00864424859359    9.91921316852978
H         8.67419413435474    8.77104495559152   11.65878701985638
H         8.77354669196809    7.38507352332226   10.59068423269816
C        10.65831250386182    8.30122341199689   10.94331873309021
H        10.96450305060733    7.56002058884030   11.68115039269451
C        11.50834152866055    8.47465644533121    9.83514187377915
H        11.09233469807848    8.77343438593723    8.87828736625955
C        12.90024042542923    8.28713382263865    9.98349385488751
H        13.22510267317203    7.59700133824373   10.76269705046649
C        13.88805729979242    8.48987398866899    8.93600760678701
C        13.61415642336964    9.15217653710418    7.73347579672429
H        12.63069042756509    9.55250719906826    7.54163309515211
C        14.59151972531928    9.30090581424323    6.77045207961922
H        14.35992948561882    9.80983311011822    5.84694206318899
C        15.86709735178768    8.80097335650178    6.98340954527483
H        16.62768144611274    8.92071013527957    6.22786743640562
C        16.15899210395040    8.14766527904185    8.17071562716040
H        17.14969102927140    7.75597562291958    8.34209683238626
C        15.18393943243624    7.99594185809368    9.13537572515019
H        15.41770681954237    7.48487935163920   10.05796566407908
C        11.14792195331529   11.46721424796698    9.46725740735057
H        10.86776468598126   11.17245625732424    8.46762646443113
C        10.24575702649420   11.61939333197078   10.55323133237970
H         9.18383037769638   11.43710284086089   10.51668352888252
C        10.94038159182991   12.20464934262675   11.61938909392319
H        10.50531665034920   12.59040937219548   12.52817352061143
C        12.30224316859022   12.38993011536781   11.20950012252495
H        13.03511021677067   12.98269042989965   11.73796908242042
C        12.40529458409465   11.96708472404603    9.85220625407691
H        13.26325141309411   12.10071937119057    9.21225811409788
C        12.63108983024769   11.01405227698352   14.54234531180027
H        11.91570113988077   11.78798822957579   14.23971472734121
C        14.03223495119650   11.49460581156083   14.15715309932778
H        14.11312782068685   12.56403974773159   14.34015064070571
H        14.25610518351354   11.30316021094305   13.11037471597155
H        14.78503763858637   11.00508494640730   14.76763865260327
C        12.55734888037586   10.86871563745642   16.06169939845643
H        13.07301305108487    9.97828563010993   16.41050143357080
H        11.53449894856310   10.85395649262103   16.42291386454598
H        13.04560146473329   11.73042381007827   16.51361618951336
C        10.38338592332574    9.04872491535267   14.25848786508953
H        10.01912413103189    8.29648927057856   13.55016364522310
C         9.42108689628687   10.23212701655463   14.20374592259559
H         8.42241052031672    9.90501110984667   14.48714259861642
H         9.36802948380121   10.64548606734072   13.19972734245913
H         9.71770671806791   11.01928381695738   14.89220801881017
C        10.35007636028003    8.40477957187735   15.64537443713125
H        10.53747034101851    9.12054452983108   16.43676969582354
H        11.05471134631649    7.58666903788276   15.74715898369772
H         9.35175880808707    7.99970726309121   15.80438401331767
C        13.15625359603969    8.10550085864705   14.09166308306774
H        13.12920237152857    8.14084283533967   15.18682258142296
C        12.63373890013779    6.74197479529620   13.63539772484264
H        12.80866998400747    6.60057640480474   12.57194284346845
H        11.57588472848767    6.60274203888530   13.83911405704501
H        13.17644992357126    5.95955872475056   14.16304349058458
C        14.60338800282965    8.26163352697571   13.63254558417622
H        15.13784276860934    7.33006268903772   13.80635991729429
H        15.11927359720840    9.04424489463141   14.17564311119456
H        14.64884020107013    8.49294991773100   12.57033833259760

