73
CSD_code = ECISOA | q = 1 | S = 0 | Stoichiometry = C30H34MnN4O4(1+) | MND = 6
Mn       10.01978107287865   -0.00001482519339   11.61111500725095
O         9.96722275070370    0.84165169029086    9.99111852742563
C         9.41442397520503    1.95167971254043    9.60714152718176
C         8.97414828089667    2.15137671377719    8.26868944254602
C         9.03230649566614    1.02591860178833    7.28259849618004
H         8.84929126095455    1.39318396740541    6.27673195219294
H         8.27531782641045    0.27720681803601    7.51489212401644
H        10.00726854778049    0.54631027991337    7.31234596017605
C         8.47708585624045    3.38012801633662    7.89399884249594
H         8.13558309917756    3.51586505679675    6.87834024300862
C         8.41113645453509    4.45666873258958    8.77895049877840
H         8.02331004914773    5.40514983562712    8.44369804649524
C         8.85033112457840    4.29601790718466   10.06727052262932
H         8.81693612851000    5.11901836500903   10.76657150549286
C         9.33281908280435    3.05400669214877   10.50813651553453
C         9.76206364165573    2.91852636346409   11.85791183619783
H         9.78797678742354    3.85527780217109   12.42214557645792
N        10.11246636861867    1.82867102134231   12.45700158608654
C        10.36445600840493    1.97047701636247   13.87496824299414
H        10.76195931759700    2.96767251700099   14.10296302346902
H        11.08598368235722    1.21468322467737   14.18420580201995
C         9.04396825866128    1.75632767592655   14.65362950914910
H         8.71527394815964    0.73182937686600   14.47437269005805
H         9.24203137626426    1.89991232769037   15.71572957754671
C         7.98227796772304    2.70737927773000   14.19090729999293
C         7.79279688939601    3.94617205965047   14.79470747498957
H         8.38789078770232    4.22860832677253   15.64935614700933
C         6.83102070488685    4.80264549928325   14.28563617066311
H         6.66349080336405    5.76781070439336   14.73889008749026
C         6.08919666333912    4.40100323844334   13.18388374862758
H         5.33415566459931    5.03923257007938   12.75548804386184
C         6.34072780769427    3.15020485963390   12.64901718840596
H         5.79380089727545    2.78222640668931   11.79203351693179
N         7.25721322226690    2.32753936725176   13.13900196018690
O         7.84104649786101    0.13192327309524   11.76663717518700
H         7.58493734918259    0.96649128375992   12.27857377630427
H         7.38242122677488   -0.59618001408674   12.20109645642124
O        10.07230738850241   -0.84165964224911   13.23123396630272
C        10.62514379674596   -1.95167363240489   13.61519967039132
C        11.06542592116275   -2.15133396760477   14.95365116293191
C        11.00719630157192   -1.02587703218850   15.93973975458983
H        11.19032567694676   -1.39311005594363   16.94559528733583
H        11.76407077873354   -0.27706908732179   15.70739186812279
H        10.03217453056133   -0.54638876516765   15.91006120096560
C        11.56255890504753   -3.38005582700257   15.32834356434954
H        11.90408116043666   -3.51576680725683   16.34399883190236
C        11.62856141969438   -4.45659047879474   14.44339023675945
H        12.01644718503021   -5.40504737938513   14.77864170337096
C        11.18935095178136   -4.29597040749261   13.15507031553697
H        11.22279011690113   -5.11897273412451   12.45577384625995
C        10.70680013197816   -3.05398599174283   12.71420094132713
C        10.27758612291268   -2.91852111628722   11.36440976699854
H        10.25168152707565   -3.85528938092736   10.80020197054607
N         9.92717234619699   -1.82868881511871   10.76528512019444
C         9.67523924057177   -1.97055192137674    9.34730868739054
H         9.27780668867204   -2.96778013771095    9.11932834219746
H         8.95367434472520   -1.21481904144961    9.03800848624547
C        10.99575772681042   -1.75633871860857    8.56872202869501
H        11.32444281419235   -0.73184692605656    8.74805357312702
H        10.79774931897325   -1.89986836178795    7.50660390255172
C        12.05744320670810   -2.70739961744734    9.03144548747321
C        12.24695024460818   -3.94619091351038    8.42764832811064
H        11.65184285454905   -4.22866295467473    7.57302076211406
C        13.20878807392717   -4.80261887513941    8.93668276110020
H        13.37632514280891   -5.76779039422706    8.48344427530477
C        13.95062613142804   -4.40095089668894   10.03841617150970
H        14.70570688126494   -5.03914882772237   10.46678947319139
C        13.69905012412278   -3.15016760936825   10.57329657714359
H        14.24598480739122   -2.78217196188277   11.43026806548920
N        12.78252473369692   -2.32753639529611   10.08333034585748
O        12.19849518912431   -0.13217320649881   11.45593553060065
H        12.45467301610797   -0.96659147990613   10.94378132511642
H        12.65782732234250    0.59600761792293   11.02237056743925

