89
CSD_code = ECIWOF | q = 0 | S = 0 | Stoichiometry = C36H49ClFPPd | MND = 3
Pd        4.08208325361924   12.29790111010590    2.74435561394558
C         5.99990243658393   12.72927676599800    2.61308377255843
F         9.99188562120380   13.61626760069357    2.32924712160111
Cl        3.65709125994999   12.97960197335494    0.66324187542896
P         3.91054651572960   11.45104557754756    4.83412501242193
C         7.79889438385165   14.30392630832520    2.85566880932240
H         8.17428066344069   15.28215873161760    3.11300745374135
C         8.67116183778019   13.32774897262703    2.41040948055044
C         8.23869635819416   12.06643966612439    2.04406422608110
H         8.94931459129693   11.33903199287589    1.68286894872873
C         6.88796446076668   11.77080233945727    2.14356152513177
H         6.53194913661409   10.78851428995366    1.84066479072882
C         6.45062941410438   13.99736401759537    2.95332333976069
H         5.75155711077123   14.76016717522663    3.28851956500135
C         5.89214710137244    9.53322439570371    5.39071686425571
H         5.15584303373426    8.73045174316728    5.38519107702379
H         6.21157848524762    9.74670957700040    4.36696643160070
C         5.28919277220154   10.80429295293001    6.00072931934278
C         7.09067436069403    9.04356325796481    6.20629812708505
H         7.47870340393468    8.12846223032355    5.74462748635240
C         6.41125252167609   11.85502487197850    5.99838867743872
H         6.73151984495139   12.02756747486696    4.96756814813145
H         6.07616775393426   12.80495148932966    6.40207233492333
C         4.85003319835563   10.49117622117152    7.43150141909119
H         4.43411988003127   11.37242010621850    7.91872656511585
H         4.08114847296781    9.71619195863524    7.43054735622632
C         6.05689314724953   10.01372223115468    8.24729712538595
H         5.72829403383098    9.80709283109524    9.27255999753102
C         6.63462591633576    8.74185073924332    7.63209899978117
H         5.87918410422458    7.95206928064700    7.62629420067710
H         7.47885124831436    8.39042719008974    8.22854054673715
C         7.13090353437859   11.10021497444262    8.26572548024039
H         7.97517177919530   10.77434929553542    8.87662511038488
H         6.73106153073718   12.01427713485128    8.71128765783009
C         2.80445705846039    9.98569023121662    4.23315719961542
C         1.59574758579849   10.61823947465036    3.52381460037449
H         0.97100597676004   11.15603520448599    4.23730673690902
H         1.95471360867841   11.32376996329499    2.74416562506764
C         0.71895468085866    9.55414457351558    2.86318945114287
H        -0.14203410989811   10.04624107940408    2.39643346284270
C         1.52126446208657    8.81026106759672    1.80248102527947
H         1.86019516867414    9.50997947798172    1.03377528571390
H         0.90102221419384    8.05296979848691    1.31907530092167
C         2.72289390122049    8.16275074322534    2.48067563847759
H         3.32362660403077    7.63179146123147    1.73410023862522
C         2.30976911977091    8.98659816389285    5.27854279969746
H         3.14979444458058    8.48947367315559    5.76605882566836
H         1.73016934952005    9.49468243450302    6.05144826837214
C         1.43651204973002    7.92202746479254    4.60284475426530
H         1.09028144681395    7.21532583198604    5.36588128815419
C         0.23090634843911    8.57865389778577    3.93361728950294
H        -0.40261542496068    7.81449436604144    3.47894413661543
H        -0.36910427743406    9.10778512968131    4.67864643648193
C         2.25325102124126    7.17606444043934    3.54942994365146
H         3.11517119784937    6.69322346637610    4.01663783495211
H         1.64225998243650    6.39547400353736    3.09179990545713
C         2.84182108580371   12.78592092933160    5.73689687286663
C         3.78475173667714   13.73818857222511    6.48595566786119
H         4.30486915876148   13.21554952942450    7.28653630312592
H         4.52176897235925   14.13393888624371    5.77969339420736
C         3.01484091030030   14.89734056543774    7.12328784697849
H         3.72393168639353   15.53060466269913    7.66853673062492
C         1.97883721792294   14.33790224569330    8.09598697903850
H         1.42468843242263   15.15502012645572    8.56217215555816
H         2.47511751652251   13.77567768793926    8.89098415299551
C         1.01932454633504   13.42789126441867    7.33322708592336
H         0.26802491709895   13.02772916874103    8.02388806765931
C         1.78935232780342   12.25682394270981    6.71245481683743
H         1.07592501835432   11.60789882571429    6.20277633094032
H         2.26354042983288   11.67323313924984    7.50353030037385
C         2.16306892900110   13.64583227374773    4.64771263834100
H         2.93599850220799   14.06625992514976    3.96849869933996
H         1.45772483898995   13.06856690740209    4.05047787498864
C         1.37571795056439   14.79682472757652    5.27925853675893
H         0.87793340729744   15.35960059831337    4.48212077535782
C         2.32069286811695   15.71712579351999    6.04241926836642
H         1.76492777519542   16.54237659241899    6.49208917150711
H         3.06042567150741   16.14250981084279    5.36080234162199
C         0.32500777820331   14.22914244313430    6.23332134288796
H        -0.37127279400920   13.58875421931566    5.68602594950363
H        -0.25229404526524   15.04313277089330    6.67636781532191
C         3.59140623560522    9.24157853768171    3.13126548125205
H         3.91475114793749    9.96505886268409    2.35019978015108
H         4.47883916115166    8.75706308098143    3.52749196615142
C         7.59750915621549   11.37771009654550    6.83721281618731
H         8.35969215151295   12.16401528391758    6.84693324190833
C         8.17975520072730   10.10923538681760    6.22568326816379
H         9.03476863881670    9.76328131353223    6.80994661880474
H         8.52378789359452   10.31294940409585    5.20961520050161

