74
CSD_code = ECIWUK | q = 1 | S = 0 | Stoichiometry = C31H38ClIrN3(1+) | MND = 8
Ir        0.14197090027926    6.29375640375591   12.09420106786877
N         1.54228692239987    6.10804645658861   10.55150377230313
N        -1.73747308369324    4.11778943236645   10.82705445311488
N         0.08706819679949    4.58877181958871    9.77459027752770
Cl        0.81339039725987    4.19576090808800   12.99703274943016
C        -0.71269790997124    4.97835681578345   10.81796869480098
C        -2.81193457326668    4.10389524421044   11.78038123158446
H        -2.44302099982961    4.48619069984238   12.72922613712695
H        -3.16217608865950    3.08299397429612   11.91859050380576
H        -3.64276340437483    4.72044860266735   11.43378740637337
C        -1.59395155678274    3.20320539966175    9.81388215604939
H        -2.31040137072195    2.42565777281607    9.64511818861968
C        -0.45042669933164    3.48705796910070    9.15212604223898
H         0.02355588999590    2.99085077888629    8.33167227766865
C         1.29015209041582    5.25022918757736    9.61100490348982
C         2.11318909066499    4.97397771003286    8.43569269773376
C         1.51692052916979    4.87565549282427    7.17558131078286
H         0.45276339437009    5.02763985539006    7.06764484427350
C         2.28792595022437    4.63495313533664    6.05623136824544
H         1.81169571668226    4.57243606368890    5.08915365522918
C         3.66624974943651    4.47321849374575    6.15539068373773
C         4.25399224105674    4.57120476269746    7.41482888694208
H         5.32157332040658    4.44518027781688    7.51192597698460
C         3.49726705999556    4.82442011003888    8.53888775014497
H         3.97402390002383    4.87872248524865    9.50339848373656
C         4.50515287183874    4.21623930278684    4.94859777901897
H         5.10171159739371    5.09843031592281    4.71712331486635
H         3.89145782754527    3.98033826295673    4.08390910055601
H         5.19426713086988    3.39404801095618    5.12989896254655
C         2.63841211341937    6.99275372967517   10.44023751737288
C         2.59977936192311    8.01215337321606    9.47918807744951
C         3.66826935882144    8.89123621546466    9.40211993801593
H         3.64232581363177    9.67846097797547    8.66295641643744
C         4.77000036597479    8.78335421388424   10.24071772650817
C         4.78244953823985    7.76548987701128   11.18386079711064
H         5.63363568646188    7.66304251724480   11.84065185758877
C         3.73297158965546    6.86845489297112   11.30525962616242
C         3.78271243422898    5.77263344722372   12.32063805432689
H         2.96698703623756    5.87168480660418   13.03459869400140
H         4.72422101303292    5.79212263537888   12.86229230093650
H         3.67057451350189    4.79459519805602   11.85367297981668
C         1.44380141225094    8.16681645445504    8.53622695939728
H         1.31472474687081    9.21297090949030    8.26854012704900
H         0.51693578033085    7.79574343359121    8.97017194400602
H         1.63626066720702    7.61237086597436    7.61700421076342
C         5.90110976166301    9.75477036706938   10.13187693918386
H         5.60108352782487   10.72424461540257   10.52920092141178
H         6.18426796934587    9.89829665261019    9.09144147393811
H         6.76756095220510    9.41087093053215   10.68928199879520
C        -1.49740286256722    7.67043336223346   12.82467375038368
C        -0.93976644132073    6.94234909810462   13.91599642931503
C         0.44107500733890    7.36575848781110   14.07430057709425
C         0.73544729443870    8.29644161293703   13.06185255124029
C        -0.44323977676306    8.44961000468539   12.23975367596841
C        -2.93840944078131    7.77363912737216   12.44557926048999
H        -3.33091012917606    8.72249530588266   12.81434505469348
H        -3.52627894092435    6.97253668432893   12.88352127674111
H        -3.07035851440071    7.75816184683482   11.36594363823418
C        -1.66734892721763    6.13877172540097   14.94313527248332
H        -1.16071972627122    5.19221024135853   15.12491074418980
H        -2.69424110449704    5.93947106713553   14.64847961324008
H        -1.68422198610599    6.68952826433080   15.88422534585758
C         1.29298083520811    6.98123097019197   15.23516609487294
H         0.88857283302414    7.42777980117023   16.14448087812672
H         2.31625678607408    7.32536735380633   15.11051602402813
H         1.29944013349430    5.90063828010654   15.37092714983788
C         1.96185287827489    9.13740465680831   12.95201723476735
H         2.19342279484830    9.37493211073533   11.91653268811169
H         2.82574183828640    8.64530765971489   13.39038573522167
H         1.79719973711199   10.07497672403226   13.48552163831123
C        -0.63899389521906    9.51666456521012   11.21551071394036
H        -0.99912587324265   10.42211645656810   11.70716689004132
H        -1.37758002222800    9.22481711856988   10.47257485129329
H         0.29365476959148    9.75681561611621   10.71273967444402

