202
CSD_code = ECIYEX | q = 0 | S = 0 | Stoichiometry = C82H108CuFO8P2 | MND = 3
C         5.01239185014384    6.16619296664959   21.49263160681521
H         5.73173901978563    5.34423708438664   21.63065699539318
C         4.16184975427882    6.24791563160018   22.77174505892615
H         3.54586973119818    7.14567797857925   22.79735690625064
H         4.80568237945499    6.27204327887525   23.64837424519397
H         3.50444574625910    5.37894212480896   22.86267720501219
C         4.20573966485518    5.83383695020799   20.29642436109575
C         2.84491714181072    6.12757774905121   20.16278924175373
H         2.34603776259818    6.63844726693030   20.97118291177646
C         2.13035610211001    5.78810783414976   19.02955631196749
H         1.07665328597958    6.02473119008890   18.97187857357867
C         2.74319196140253    5.13846968780943   17.97202510735601
H         2.18174823827769    4.86262658630041   17.09238183676112
C         4.09522562022717    4.84406874588655   18.05652602123844
H         4.61486980394008    4.34180309420467   17.25455917941694
C         4.78430521978205    5.19579975978757   19.19401743691404
C         3.55377229746777    9.84937319187639   22.53387395141974
C         3.33062411800062    9.96570561753334   23.89284999953880
H         4.15273280463048   10.25149747464437   24.52864718757571
C         2.08928386735150    9.69270249631432   24.45883260432977
C         1.08023990423547    9.22060253135732   23.60936546816914
C         1.22757536841583    9.25809808885972   22.20649933236486
C         2.48611319426328    9.53157685336509   21.69689282442029
H         2.67775129054333    9.46487226682574   20.63655433137506
C         1.93890351214180   10.00820964942280   25.94889596192049
C         0.51239063798777    9.90797791854808   26.49992992438349
H         0.48631180313197   10.35775236694270   27.49163331102420
H         0.17497093506335    8.88274965953439   26.60005149418428
H        -0.18704024008342   10.44352394792210   25.86421041901793
C         2.86052757035944    9.09719028482561   26.77187612203251
H         3.90109300630483    9.21656261991300   26.47883612638512
H         2.59272025885344    8.05108585534115   26.63547961238862
H         2.77214081257547    9.33681862211793   27.82963351713913
C         2.36167669184402   11.47600200637708   26.14606008880947
H         1.72053822354622   12.13033510476174   25.55860266646217
H         3.39023979782190   11.64977515695105   25.84626895623486
H         2.26674280719165   11.75111227290358   27.19457499410072
C         0.12150218420510    7.33255958516271   24.55714202939257
H         0.41661484886187    6.68808820365052   23.72281136241865
H        -0.83090461960088    6.99252534766660   24.96161113348553
H         0.89475771064674    7.26094269442020   25.32791133763264
C         0.01610208975470    9.10959265833029   21.28719633002147
C        -1.00205937820123   10.18197478558979   21.70768453458701
H        -1.31411122538018   10.03144503750336   22.73663379461621
H        -1.88012724485650   10.13252507243453   21.06720481291202
H        -0.56426821436986   11.17487492277277   21.61903002514952
C        -0.64355716212038    7.72711618523797   21.37163078402872
H        -1.16769192394476    7.60137696524144   22.31206909516452
H         0.09552840716514    6.93713876556861   21.26059761729621
H        -1.37124919591331    7.62415131185208   20.56885095196817
C         0.38142892615838    9.35777345506060   19.81987728092506
H        -0.52514636120488    9.33251313047568   19.21841826490364
H         1.05292716741392    8.58984502373516   19.44579384864750
H         0.84032275128447   10.33518692141593   19.68580889101382
C         6.27600692903735   10.13523358912041   23.25351226150910
C         6.99356487990626    9.02953781716134   23.66419681478148
H         6.89446427855529    8.12491132208086   23.07746038366298
C         7.82379850272061    9.05334393987549   24.77989612573951
C         7.94288906670014   10.27297527557713   25.46134626375416
C         7.11360121393823   11.37443125997217   25.15061157021334
C         6.30862048474741   11.29038442654542   24.02576786729521
H         5.69343096185082   12.12067833769570   23.71678497091938
C         8.47394470098205    7.72261691015701   25.17024611478385
C         7.39534010754582    6.62335512726712   25.12128221581243
H         6.51920044951265    6.92551456551729   25.69122793041307
H         7.78608472561330    5.70628594542055   25.55637332236297
H         7.08897043403978    6.39380696220987   24.10592186865773
C         9.56690827268784    7.37410405042135   24.14991452337370
H         9.16101609805988    7.36445692321386   23.14041498064104
H         9.97587060687626    6.38991377114219   24.36766193150718
H        10.38059032738578    8.09627042095109   24.17849681401439
C         9.05276714193640    7.68120279847008   26.58926086639989
H         9.96196182873231    8.26089357281456   26.69167197533543
H         9.29649562907036    6.65076480038841   26.84335480807990
H         8.32563772200351    8.04721019364539   27.30923491368682
C        10.18209427495762   10.66499583881721   26.00788141354578
H        10.52868222681113    9.87266797800011   25.33882550386758
H        10.82076907280300   10.70534176439117   26.88959198820779
H        10.24788321219394   11.61472773553121   25.46915897759920
C         6.97287813128258   12.55937507011187   26.10822270357021
C         8.30502858922011   13.22478418108346   26.47979110109044
H         8.90791117236498   13.41397795560277   25.59685503105238
H         8.87141606664387   12.60781500302697   27.16798430970418
H         8.11142280507905   14.17748869499361   26.96983875706961
C         6.33131732876274   12.00446338728075   27.39078050813566
H         6.18325976938367   12.80608735576094   28.11123419370345
H         6.97418673654256   11.24927853327906   27.83498084349164
H         5.36568239795585   11.55216359996236   27.17479917757449
C         6.06041733698601   13.65335710468856   25.53836547347389
H         6.45358148724500   14.04458386729482   24.60174420705593
H         5.99858729403381   14.47428524028111   26.25027136459277
H         5.04826595144365   13.29126069130908   25.37386748462043
C         5.28719796797652   11.62385009987028   21.06393252198101
C         4.12273061381541   12.21117195868499   20.57452222972354
H         3.18081990543156   11.71411864528295   20.74912901704489
C         4.11719942462697   13.43261456833728   19.91655776399803
H         3.20558190480982   13.88646659008349   19.56533818776197
C         5.33425104154810   14.05036049245516   19.75464977452607
C         6.99781846798650   15.46751959036900   19.40762881418221
H         7.49687996988966   15.77495244301718   18.47983720609659
H         7.11701326730891   16.26277678221575   20.16727374342766
C         6.51020050825132   13.46171601095374   20.20762009981460
C         6.54309411510633   12.23561290620189   20.84593878414130
C         7.84100922149072   11.77469064126180   21.36364695284632
C         8.56095864622736   12.68316371688852   22.12053759034774
C         9.31649572479187   14.51618265053228   23.09983137708588
H         9.03368438242232   15.01440627611084   24.03556843189024
H         9.76477297395385   15.25940681476154   22.41365799897309
C         9.81247799852644   12.40623822107815   22.65962188199068
C        10.41150361621071   11.18213002031150   22.48071904928193
H        11.37567335958336   10.95964137548720   22.90585881279721
C         9.71599662508121   10.26049784813264   21.71180904721284
H        10.15918269839586    9.29065338260707   21.53796576805641
C         8.47991705416522   10.53759587298891   21.13057468382562
C         9.16447834985601    8.35647161999716   19.45053718314792
C         9.26584886931701    6.99365514238059   19.66573772670237
H         8.47676963423367    6.51596343104085   20.23118099873103
C        10.33434397456832    6.24870619778608   19.17436015924907
C        11.23977116792162    6.91508455871993   18.33410437189463
C        11.23314197615020    8.32238456776579   18.21426802122161
C        10.18128246177537    9.02172346031093   18.77841733343742
H        10.12707506879821   10.09343946934415   18.70222748541221
C        10.46862367526795    4.80828063771042   19.67391398207968
C         9.40918658860532    3.90720100168972   19.02847768848385
H         9.56227673987188    3.81417002741793   17.95557117451283
H         8.41265813862642    4.30421042301749   19.19291400879109
H         9.46118094299886    2.91137047273956   19.46305690101363
C        10.23120752953424    4.81804671038456   21.19716716621229
H        10.47300514562349    3.84107975955007   21.60943200278162
H         9.19647297322365    5.02937120716915   21.44669883096158
H        10.86628811896336    5.55974521073327   21.67747147696382
C        11.86424624913816    4.20845711928857   19.46509479573670
H        11.93934076703583    3.27879766397696   20.02682972949657
H        12.63108816103130    4.88935817781876   19.82679106211430
H        12.07226453425392    3.97728087863747   18.42719002877026
C        11.61244168819232    5.56985437075608   16.46341297232868
H        10.87279315460628    4.81554641519486   16.74328930113077
H        12.44006833548219    5.09061985506909   15.94146045067643
H        11.12727754091072    6.29094155259517   15.79710160691097
C        12.39935786306165    9.06595094760524   17.56361257466166
C        13.69392601973384    8.64237835814089   18.27326477639711
H        13.64305252410601    8.89920591267811   19.32976199007697
H        14.54503512230775    9.15703855568628   17.83230556043594
H        13.85043773025726    7.57240244623573   18.18365598927130
C        12.50498623690460    8.76025567287929   16.06318809452080
H        13.19187077808048    9.46147942424921   15.59315221898264
H        11.53298754577878    8.86164930668017   15.58305891875787
H        12.88582107619313    7.75967209516700   15.89563292801434
C        12.26808347212680   10.58648066301037   17.71301015036898
H        12.17247849229664   10.87882968318584   18.75654394432392
H        11.41623224656955   10.96402472966782   17.15160537352475
H        13.16305306911802   11.06052064142996   17.31475324774711
C         6.99115583305326   10.02143917384545   18.74273654395752
C         5.90267613773740    9.39257479753967   18.16618636218033
H         5.54417395923256    8.48082450365699   18.62843538529970
C         5.27695420418192    9.89991196669047   17.03276817114287
C         5.74192549340708   11.12897526391235   16.54584987922613
C         6.94457183836022   11.70032176569374   17.01396656349533
C         7.54306051052015   11.13860000358279   18.12981488433874
H         8.42971253682589   11.57627049567043   18.55710642280457
C         4.21151614750495    9.01501623091634   16.38559591911677
C         3.02988900615409    8.84436419065271   17.34744541468999
H         2.27205257401950    8.20897859679051   16.89525070119000
H         2.57821219926597    9.80804169013658   17.57785471651460
H         3.34686999711212    8.37797582688028   18.27678910546308
C         4.86347978013898    7.64467941304596   16.12645910777835
H         5.71523733406660    7.75692954291238   15.45854867962211
H         4.14185241276193    6.97905429775673   15.65902445924471
H         5.20401816452858    7.16963255861926   17.04028343750891
C         3.68746210861843    9.49506286114044   15.02793968227917
H         3.10594097295783    8.69304004653029   14.57572795113326
H         4.50752564030279    9.73978907466693   14.35884514871920
H         3.03748007822282   10.35872068481051   15.11261048012308
C         3.92280145937594   12.51713094367833   16.16053492886664
H         3.26001464660796   11.84812860796868   16.71769436320642
H         3.37818189508075   12.96784755608616   15.33201275060241
H         4.26280707493329   13.30198803138673   16.84434758572682
C         7.64836051036740   12.79971953945681   16.21878251588837
C         6.79096489577263   14.05638605071715   16.01661203652214
H         6.33295376871251   14.37436271507749   16.94847666016852
H         6.01001708562804   13.87960385329963   15.28558987654195
H         7.41459552734975   14.86877705591904   15.64700937140888
C         8.96650722033143   13.22922512974930   16.87374018732520
H         9.66083290437067   12.39495294168888   16.94094424566748
H         8.80624921423961   13.63783560148794   17.86870477103646
H         9.43686643697812   13.99765349937772   16.26283048828638
C         7.97773056759046   12.19673630162633   14.84296869333305
H         8.50881339624882   12.92466190725714   14.23311480496555
H         7.06569831267270   11.90919522108359   14.32785139669052
H         8.60460139457418   11.31383486711315   14.95576570491466
O        -0.07948502394889    8.66718739036325   24.13385671963641
O         8.87243590448172   10.42030496751637   26.48011822707449
O         5.62498376852954   15.25608153226229   19.16493237089357
O         7.57072013690299   14.27320167875391   19.88389384024021
O         8.17924796609884   13.94621115677522   22.50110185259435
O        10.25781125702037   13.49742483564625   23.36158556839907
O        12.17497584921952    6.20818751449033   17.59258638738251
O         5.01263499494100   11.82079814843970   15.58970694482299
F         6.11973706182871    4.90707897380985   19.24123223618891
P         5.21367354309584    9.95461451040707   21.78318599887730
P         7.71043690232976    9.18350386797953   20.18812963402261
Cu        6.07800203038264    7.84036934755450   21.07152331178911

