71
CSD_code = ECOCIL | q = 1 | S = 0 | Stoichiometry = C34H24Cl2N10Rh(1+) | MND = 6
Rh        2.26862217252049    1.51129751135264    2.78478980033887
Cl       -1.59446540655311    2.13838382083420    8.53972419371794
Cl        0.50687963508017    5.26389933004751   -2.80307970662206
N         1.73130582447328    3.14744562988161    3.79131230983419
N         1.70589178843038    4.31642297931037    3.29202896079836
N         3.24747530818037    2.60440415284542    1.47757170444825
N         4.08342821234948    1.94560803793137    0.71497502598519
N         3.04332383210051    0.02361730368923    1.55248541659200
N         3.94489063680555    1.09381426981403    3.94559129429981
N         2.36955041773409   -0.41183530233975    4.79918914476282
N         1.49812252076216    0.25643508797151    4.08613587273460
N        -0.60516472654165    1.37928168684312    2.37872464635048
N         0.51520101157573    1.65604444024792    1.84517530525119
C         2.28463812317904    4.71552312815666    2.15423355908459
C         3.11140558210481    3.93413547745839    1.27766544213494
C         3.73360377965837    4.57626034779830    0.18735517400110
H         4.36962087247114    3.97328642704802   -0.44155100919239
C         3.51249277676567    5.90136582970754   -0.07652656318308
H         3.98182332721326    6.36506531115334   -0.92990638230172
C         2.67363379618863    6.65967406944981    0.75272653086584
H         2.50249285916863    7.70106340890117    0.53131296633036
C         2.08745705207925    6.08117988991359    1.84543645240443
H         1.45838253542204    6.64888322482573    2.51235549234857
C         3.98170892979693    0.60855347830085    0.74937283257364
C         4.78689172206161   -0.17310566654371   -0.09900432816597
H         5.51494657516082    0.32869420242243   -0.71368987807921
C         4.61431454554798   -1.53527063122090   -0.11931771682069
H         5.22536062520242   -2.15534242298434   -0.75613210798643
C         3.63358913699797   -2.11143242288784    0.69060849279714
H         3.47097972356179   -3.17589617488043    0.69660218210753
C         2.87496023176440   -1.29475044827577    1.50416718292614
H         2.11154521137777   -1.71090863955960    2.14980249088733
C         1.00202065612775    3.01707733328692    4.98715103855203
C         1.52202581897972    2.32578502222054    6.08053324186278
H         2.55397475719042    2.00820650842792    6.07804565547496
C         0.73128968109852    2.07431973376352    7.18334617739831
H         1.13006840314217    1.53327381894729    8.02605857658622
C        -0.58459607927051    2.51839288302801    7.20293426709777
C        -1.08925602195821    3.27257455122304    6.14940999656290
H        -2.10176160600226    3.64062913442637    6.18787523923223
C        -0.29413033689342    3.53433685964405    5.05524627411837
H        -0.67353298578844    4.10651790335971    4.22270368764417
C         5.18221231489222    1.58117360656267    3.96239042217460
H         5.37399644082602    2.44145351349946    3.33312211442621
C         6.18949152504760    1.02533027105472    4.72446792640858
H         7.18038432193967    1.44574323781046    4.69388846404036
C         5.90204362194527   -0.08934187463650    5.51482088019644
H         6.67612154777761   -0.54572592664414    6.11140550904129
C         4.62433279759054   -0.59231704970810    5.52715806374780
H         4.33968104084920   -1.43839415080765    6.12951214474698
C         3.63833501391319    0.01798294889341    4.73065667390347
C         0.18393490344985    0.05492686699301    4.32877978467189
C        -0.80798503959087    0.68874266935494    3.50600975011678
C         0.41910770281122    2.42850447186182    0.67353390975072
C        -0.40256199413822    3.55858280903153    0.66756738969510
H        -1.02012678785229    3.76082943880729    1.52905968168782
C        -0.38314217228788    4.42518356151730   -0.40318658757382
H        -0.98934552389999    5.31653493950491   -0.39396517097212
C         0.43379065790938    4.15281674316301   -1.49490369982917
C         1.18736440305558    2.98680640049584   -1.53630249357775
H         1.77910631277519    2.75827684419454   -2.40781717456740
C         1.17716616174721    2.12673996839237   -0.45700762902978
H         1.73803213945613    1.20519278268281   -0.50145098714956
C        -2.16788615460052    0.53622040541091    3.86191953084202
H        -2.89658643612552    1.02549438048155    3.23548529974294
C        -2.54436228732547   -0.20438209015019    4.94912167961108
H        -3.58692821110300   -0.29976246437730    5.20751771227043
C        -1.57369539655615   -0.85522652531160    5.72412712178502
H        -1.87649936344543   -1.44817274617680    6.57281310031455
C        -0.24556015360603   -0.73702331955687    5.41350760187942
H         0.51756769527301   -1.22350079788077    6.00053004588941

