80
CSD_code = ECOGAG | q = 0 | S = 0 | Stoichiometry = C32H38ClN4O4Re | MND = 6
Re        8.57814003700537   -0.48240481092722    6.46513325493438
N         8.64207481319727    1.61434622681140    6.07322401646907
N         6.90056725545407    0.34580708047495    7.48867405432830
C         7.54035277934694    3.73331731254953    6.07829064947321
C         5.37155433051023    2.16017872052635    7.75898124364922
C         8.51022198182185    4.20801036696788    5.18565978284525
H         8.43969552522906    5.22948194872847    4.83871150223079
C         6.60163755861947    1.64677227650295    7.27807628197744
C         9.57374297843019    2.10278006388112    5.26689020055595
H        10.38464771938365    1.44038551602062    4.99743376463190
C         7.60328083213659    2.37622151226764    6.48246104480581
N         6.58206379706898    4.63203991987395    6.45447483460835
H         6.70476939109885    5.55031133626383    6.05498653840068
N         4.96935374324262    3.46179456202860    7.65412452324918
H         4.04201447959433    3.63224855219094    8.01238849237766
Cl        7.03326944950553   -0.39347203304144    4.66053873907658
C         6.04757527535508   -0.45950551427434    8.10670922950006
H         6.36531344236835   -1.48098526737090    8.26371468301958
C         9.75576223981787   -0.36212408127385    8.00104494074588
O        10.43916744106894   -0.25616146610904    8.92147811893089
C         5.86111583522482    4.59382369550937    7.70719420783829
C         4.46453389764463    1.27408098147615    8.35316922012387
H         3.50430787162400    1.65206785853783    8.67592561558935
C         4.79592329734525   -0.04751033135913    8.52804389693112
H         4.11506792519992   -0.74503551503709    8.98710594061572
C         8.17094361256459   -2.36903933863038    6.73683116712836
C         9.98423939494255   -1.04206972390308    5.23674716120011
O         7.84611380553378   -3.46210487281200    6.85119067856592
O        10.75380470530277   -1.33226006585790    4.43888899268968
C         9.53169138449680    3.39175421616342    4.76591787411493
H        10.28647323829122    3.73857470175502    4.07978944636114
C         4.33213654233679    6.01399501790181    9.17124033933593
H         3.65989718352223    5.15530686319016    9.29788826434980
C         6.82939830087297    4.50829323032337    8.90274290764182
H         7.35290006570196    3.55057923449895    8.88207989097904
H         7.58047653263777    5.29193199427083    8.79535465242141
C         6.10353649541694    4.65138272690077   10.23828091952260
H         5.41749972403556    3.80934065609767   10.36378853282196
H         6.84973359283460    4.58609584602811   11.02998894356729
C         5.31844520955677    5.97129918333266   10.35953572805102
C         4.46201606940325    5.96381140554568   11.65600948511599
H         3.82421466089277    5.07116210442404   11.60701163504885
C         3.51469177514916    7.18031050201735   11.73087721514778
H         4.09560090460691    8.10256244027102   11.79442139459966
C         3.45349856481076    7.26165469984241    9.21100391328369
H         2.78815316495794    7.26857701746197    8.34440489728234
H         4.07003228982461    8.15935930136974    9.15923130123365
C         2.62539426098660    7.26351345885620   10.49006583433188
H         1.94369628106917    6.40900053175349   10.47863607429208
H         2.01973494761131    8.16955873678345   10.53581784747375
C         5.02552749988581    5.87317840167891    7.81445531212669
H         5.67287421437386    6.73426328184886    7.64322346417023
H         4.27403783566764    5.86383112335772    7.02098760510930
C         2.67096208717767    7.03363214438112   12.99327471303116
H         2.16259029473694    6.06295202915588   12.93021656027240
C         3.51549214532076    7.00227803301057   14.27482316837393
C         4.43729452732716    5.78853424210879   14.20085493391505
H         3.83201229531785    4.87900094323971   14.18404180662811
H         5.07946970909364    5.74061974200759   15.08191978766293
C         5.30061037995801    5.84465011547917   12.93711054522177
H         5.98894639085530    6.68516995820084   13.00957703956046
H         5.89638519080261    4.93227963484379   12.89801314877275
C         4.33108053708700    8.27580117420105   14.51981030411183
H         4.93599813741576    8.14992590252020   15.41663110754724
H         3.68744330301620    9.14181051330825   14.65113248504233
H         5.00598135951029    8.48506748121981   13.69657538111300
C         2.38919541351318    6.91258937303796   15.33392554859640
H         2.00585432613313    5.88747249338376   15.36019252810424
C         1.29809778102135    7.87169199050725   14.79146026004573
H         1.33459563078300    8.81365040202699   15.34128226105246
H         0.30797306763522    7.44710662503107   14.94686995014593
C         1.59635230345945    8.07967813192829   13.29469660188565
H         0.70552294646821    7.93541407101857   12.68560597960880
H         1.97404523635020    9.08408504836436   13.10108764739751
O         2.76771727564012    7.17095254946482   16.65618316548757
H         3.10094904960278    8.07410353152531   16.71053671055510
C         6.30442563576011    7.14420280806238   10.35598753531781
H         7.11554595510230    6.94913599875357   11.05276371160385
H         5.82383415115579    8.07223072037796   10.64695982832278
H         6.74310871530786    7.29503275718085    9.37442103574236

