56
CSD_code = ECOHAG | q = 0 | S = 0 | Stoichiometry = C26H24Br2PtS2Si | MND = 4
Br        9.24411902317236    3.24325879016959    7.31256288470547
Br       10.91765623967983    0.25048032577359    6.98331267468685
C         7.11690079570570    2.09542918772181    2.99893155894085
H         6.46411660178197    2.84356065182375    2.55066888654106
H         6.48441225017036    1.27821672718805    3.34443553449679
C         9.78912644511751    0.49847826007622    2.67603861684867
H        10.18754824753552   -0.30500242129407    2.06039346028837
H        10.61133248037934    1.12157517298703    3.02007378524832
C         8.87059101251720    4.05797017936202    3.81392159511509
C         8.31164512650988    5.11448077051866    3.11258936677728
H         7.23905145865136    5.19434135605155    3.02053202737244
C         9.13477462705304    6.06899145969457    2.54520745027647
H         8.70000367485225    6.89153096665797    1.99820081757861
C        10.50880547665488    5.97639930789610    2.69021338764862
H        11.14836065356927    6.72703350103407    2.25182021098827
C        11.06116156602004    4.93048027323996    3.40921584987217
H        12.13025785247228    4.86438418839867    3.53944737154002
C        10.24348142566287    3.96743717009777    3.97177073076565
H        10.67668328681685    3.15973794395591    4.55799109855193
C        10.05580587013220   -1.69073410639908    4.43153277706846
C        11.42504112842395   -1.64498007827518    4.22987664520127
H        11.90735660028196   -0.74004143765397    3.89546715582503
C        12.18250127363263   -2.77055909543949    4.49870761475164
H        13.25115091840822   -2.73572255368297    4.35347660059422
C        11.58016979298000   -3.92461010758905    4.97002302635505
H        12.17954635492279   -4.79578326016895    5.18568646489584
C        10.21129935622084   -3.95763400351373    5.17784301684028
H         9.73839838203972   -4.85174482843170    5.55440606552078
C         9.44338426231442   -2.84073075932362    4.90633717771331
H         8.37643029647406   -2.84977948712200    5.07302050757494
C         9.14485127984524    2.90939675564515    0.76029575769257
C         8.27822749899715    3.77669530862342    0.09848057708913
H         7.21178654844570    3.61964533027535    0.17565882663239
C         8.75815644606492    4.82773758001620   -0.65886874447039
H         8.06831597654619    5.48738019314856   -1.16446374839910
C        10.12338000850181    5.03271550764321   -0.77082746398849
H        10.50149086810278    5.85410665634564   -1.36089785519396
C        10.99962316570227    4.17784280304234   -0.12609098448090
H        12.06539438638555    4.32911956313546   -0.21235433431682
C        10.51309878426554    3.12613609983287    0.62887229852274
H        11.20956230382902    2.46263309874414    1.11964912338657
C         7.52188048171819    0.23289592199782    0.61592279199555
C         7.42981156569447    0.45726533489028   -0.75481735981837
H         7.88114793270156    1.34450234541686   -1.17409625731761
C         6.77346944114734   -0.43611512037531   -1.58151526391191
H         6.71190423623837   -0.24188273732460   -2.64220202667462
C         6.19708884663860   -1.57754050609485   -1.05001161475844
H         5.68367485961479   -2.27622188132567   -1.69364074356216
C         6.28315348268192   -1.82027209269412    0.31076454816411
H         5.83787124864164   -2.71023649619721    0.73059067894072
C         6.93816009847181   -0.92292575422505    1.13348035752392
H         6.99979874158958   -1.12443288296882    2.19353177158818
Pt        9.26467635150823    1.44080244689720    5.72198638627073
S         7.76259760896098    2.85251455946340    4.53470466287468
S         8.98830462441928   -0.29875140868581    4.11448813621723
Si        8.42356073312021    1.46352528101552    1.73625611941183

