75
CSD_code = ECOJAI | q = 0 | S = 0 | Stoichiometry = C24H26F12N4NiO8 | MND = 6
Ni        8.80392824481351    7.78878293037666   13.31771698860030
F        13.21652042454437    8.06840871968903   11.10466402528292
F        11.86167015446928    9.44534859832039   10.16242801741501
F        13.30721805517715   10.16404166271973   11.58080522748227
F        10.73145769916743    9.51125717322955   17.18271242570688
F        12.71340931459861    9.11291696572837   16.44473467800493
F        11.79653870720343   11.02475181183432   16.08166600718437
F         4.12841186345347    7.62230821570524   15.32530455437069
F         5.67227886594092    6.77765682112412   16.56099104133511
F         5.07626816271955    8.82756810361337   16.83345821175187
F         5.33959717872951   11.38704196794860   12.13476184094312
F         6.33305025158760   12.39288347220273   13.75703655607934
F         7.38923995362730   12.00445753244280   11.92039383525012
O        10.01209441005207    3.82718219860579    9.52868374761904
O         7.70973600906787    6.92449658919104   12.01657971282469
O         8.23877347217893    2.31021584778854   11.52736612878721
O         9.75555384813609    6.12127341538880   13.59117839509588
O        10.42275674064594    8.26448117786325   12.08228836377824
O         9.84452465831139    8.63605517859270   14.88479557588150
O         7.26294332532108    7.50172801491584   14.62775344140243
O         7.99367570937042    9.63624660000606   12.83600995827942
N         9.39916901797372    4.85563356126080    9.84746720060900
N         8.30344196118800    6.39669159791309   11.01211195188216
N         8.66043049209477    3.10037125847375   12.38293026073345
N         9.24703261173787    4.96101092183549   13.43810535878184
C         8.88037520833830    5.16146207920527   11.02530849331818
C         8.94566107541089    4.38607946756557   12.23875382798922
C         9.29720680965208    6.03142667703175    8.93717588886274
C         8.22010410223128    6.90110408209614    9.63321781575831
C         8.87738075535918    4.04536245781852   14.53068218551180
C         8.96392189534409    2.68703972860078   13.78182714893975
C         8.97205397838107    5.55473658270619    7.53046453977764
C        10.69087379692309    6.66201966253964    8.97432471443267
C         6.79211996639326    6.58444407037820    9.16628069983114
C         8.44773591650957    8.40421788611919    9.58955688928917
C         9.83610721958958    4.23192034969318   15.69569807757365
C         7.45218095786774    4.38710298979903   14.96660945641796
C         7.97946706352476    1.61637360027279   14.22090022502403
C        10.38193622472595    2.11093995021797   13.73678478958618
C        12.46604914984625    9.16252689127183   11.32348278372408
C        11.43424432562893    8.89742350473538   12.44979179855117
C        11.79135115907681    9.35579658548522   13.71133503643145
C        10.95863414346489    9.16676435913597   14.82130437461165
C        11.54649550137876    9.70960133764955   16.14985337554893
C         5.30712489010589    7.88569096942464   15.91357637756010
C         6.36259143006716    8.32714990681822   14.86665609583921
C         6.12414838914623    9.58158283935172   14.31280193540389
C         6.96615061557285   10.11597318688234   13.33265184587829
C         6.51317026347282   11.49294202016518   12.78278709104036
H         9.76298098037038    4.88647465360772    7.19835837617179
H         8.03573109159361    5.00694494572766    7.49329227932524
H         8.92029257683290    6.40193584983009    6.85336384087153
H        11.42352140004739    5.92578136089852    8.65068741559976
H        10.74465172354915    7.52141157570454    8.31412499420669
H        10.93931094234770    6.97350976661616    9.98530585114891
H         6.59257833894932    5.51545601590009    9.19627022604139
H         6.63086839983931    6.95217136416994    8.15780580211847
H         6.08923429318016    7.08071283101938    9.83173608837391
H         8.43606277456699    8.75434207799339    8.56186649597829
H         9.38733118477830    8.68074825056274   10.05368222615788
H         7.65144930455894    8.90140956241289   10.13770449516810
H        10.87120145131073    4.12149565339616   15.38805582042627
H         9.70833357354828    5.23539609025088   16.09444442619557
H         9.61513082948196    3.51389234821889   16.47964369144570
H         7.14452999145246    3.76100518375498   15.79804245060660
H         7.42466171725545    5.42447594397975   15.28791589643586
H         6.74864898024935    4.26965574104066   14.14556397942918
H         8.18674453388104    1.31759426417433   15.24402603701208
H         8.08778059104496    0.75095765070728   13.57160201896525
H         6.95234528460565    1.95936677168863   14.14986332167184
H        10.66490429775692    1.72056241338369   14.70974165634395
H        11.10429286185654    2.86243144313189   13.42681305034710
H        10.40911877720223    1.29639435593094   13.01578646884950
H        12.72709219175622    9.87138620037685   13.84503436768632
H         5.27229593787084   10.15199616378052   14.64299975144022

