87
CSD_code = ECOKIT | q = 0 | S = 0 | Stoichiometry = C36H42N8Pd | MND = 4
Pd       11.49479021296017   11.71988999430225    2.57109136558133
N         9.79352020451866   12.97578181647836    2.98611742310396
N         7.60454988455786   12.74205522916323    3.72595435982774
N         8.75433220807780   10.93774097412871    2.73088902439426
N        10.06776716934274    9.26370282140044    1.86410593806998
C         9.90959672579325   14.30759922701290    3.35552724507455
C        11.02954192511150   14.65202913781754    4.12147167378306
H        11.70487790052599   13.85006089435014    4.42804724510847
C        11.27083017286857   15.96642326632955    4.45585291665272
H        12.14125391101042   16.22332845045115    5.04197519101340
C        10.40124896874158   16.96193695983115    4.03415564909761
H        10.59453247600628   17.99308574854657    4.28922214359002
C         9.29267741362643   16.63118895386135    3.27480494439903
H         8.62054900352125   17.40652199058647    2.93518029321425
C         9.03724489637347   15.31458496407554    2.93652490502205
H         8.19132778039077   15.06800828288899    2.30868270291826
C         8.72824433576866   12.22517941892951    3.13939796177635
C         6.37189804979883   12.17370726375286    4.00901069837715
C         5.52540462340857   12.85655726376451    4.88432476786957
H         5.85478331092004   13.78773619840111    5.32582409769745
C         4.27747895904071   12.34996434580199    5.18804150920871
H         3.63521240633767   12.88832929020610    5.86975317138223
C         3.84977740158069   11.15901771134400    4.62430005332374
H         2.87482200410746   10.76308905928985    4.86524244748747
C         4.68197289776689   10.48581584327406    3.74584632541086
H         4.35425695927715    9.56120593745545    3.29333749597829
C         5.93134147401501   10.98583065704219    3.43300976349913
H         6.57869367268987   10.47133641768330    2.74548725343911
C         9.95389004768346   10.46956730379151    2.43928109571928
C         8.99657304980042    8.35015531179965    1.44976684508239
C         8.08091563847709    9.04962772082620    0.44303572471205
H         7.67972401184516    9.95777472930372    0.88122913549168
H         7.25994629839137    8.39731696888967    0.15776324531275
H         8.64285685885356    9.31842132071051   -0.44906426805484
C         8.21882840220619    7.90405779989879    2.69062510135444
H         8.85850563139132    7.31521851848470    3.34500124681831
H         7.36297699894878    7.29894489138173    2.40462439325115
H         7.87289373777344    8.77405330774781    3.23874832099485
C         9.66482270916034    7.14240781119057    0.79103247295275
H        10.23862242315596    7.44861135644799   -0.08167465036526
H         8.91021430708096    6.42948826294434    0.46966865258232
H        10.33097880223442    6.64010281873129    1.49033853507879
H         7.73984867495999   13.67052268936169    4.10911817787521
H        11.00111569642476    8.97909695018881    1.59416944512578
N        13.19605952399396   12.97579154115657    2.15609495142547
N        15.38501944903398   12.74205446790399    1.41623502012023
N        14.23523845638309   10.93773992481152    2.41130540391693
N        12.92181195228790    9.26369548308883    3.27809275588438
C        13.07998190046982   14.30760769696670    1.78667953046029
C        11.96004095264017   14.65203254498601    1.02072595355155
H        11.28470219032462   13.85006352865236    0.71415970289878
C        11.71875048165622   15.96642447488126    0.68633913902390
H        10.84832002393748   16.22332698115848    0.10022585622147
C        12.58832777633340   16.96194137591877    1.10803655754588
H        12.39503591134782   17.99309037172369    0.85297714986254
C        13.69690504762737   16.63119612671937    1.86738022021478
H        14.36901982341461   17.40653386771561    2.20702148961780
C        13.95233410661722   15.31459532385213    2.20567436708072
H        14.79825148855137   15.06802383578207    2.83351838263971
C        14.26132971084667   12.22518269044891    2.00280532901382
C        16.61767279511391   12.17371091173301    1.13317699767677
C        17.46417699200954   12.85658176870258    0.25788692666708
H        17.13480174150139   13.78776832653778   -0.18359910363311
C        18.71210676411906   12.34999463444574   -0.04582774716715
H        19.35438361188923   12.88837817123003   -0.72751910827360
C        19.13979858930646   11.15903039991954    0.51788927801289
H        20.11476321405218   10.76311461683301    0.27695905151443
C        18.30760074845511   10.48582025275602    1.39632948438377
H        18.63531625337095    9.56120851654221    1.84882931402677
C        17.05822769103665   10.98582587135057    1.70916073339319
H        16.41087544740990   10.47132678649911    2.39667299915557
C        13.03568276652078   10.46956164936148    2.70291679989147
C        13.99301176485166    8.35015307936343    3.69242235806692
C        14.90867538925124    9.04962975835622    4.69914499288767
H        15.30987103764088    9.95777000344070    4.26094655557921
H        15.72963933127988    8.39731512855368    4.98442207935868
H        14.34673820596369    9.31843559976907    5.59124256359907
C        14.77073578642758    7.90405420365585    2.45155067499525
H        14.13105166623644    7.31521558244973    1.79718030430132
H        15.62658361515668    7.29893670892929    2.73754771244951
H        15.11667365851666    8.77404479739876    1.90342094428231
C        13.32474755269770    7.14241777071037    4.35116479124526
H        12.75095538456920    7.44861838054725    5.22387817995609
H        14.07936448467092    6.42950863075520    4.67252332821938
H        12.65859044537261    6.64010034605278    3.65186640469720
H        15.24972196915375   13.67052682417104    1.03308202245091
H        11.98846406144897    8.97907516435723    3.54801761252335

