78
CSD_code = ECONEQ | q = 1 | S = 0 | Stoichiometry = C32H37ClN5NiO2(1+) | MND = 6
Ni       -2.58352024894483    7.97602995088930    4.41190818257725
N        -1.66635878825054    8.87295425906237    3.01768870541276
N        -3.15364733467997    9.85701524129777    4.99437890951335
N        -3.80534302092633    6.62741687000030    2.95491751795668
N        -1.47605817504181    5.98493820912315    4.32197734184377
N        -0.71326176567044    8.14725925875189    5.94625772293826
C        -0.98026069339496    8.37901046712863    2.00724722215342
H        -0.91221548037259    7.30337309047961    1.93164465603713
C        -0.35430280415765    9.16874040985521    1.04052847542710
H         0.19115505526539    8.69476238329903    0.24008846168551
C        -0.44106284159903   10.53712612000653    1.12773663268712
H         0.03727284191104   11.17710355000742    0.40205351285879
C        -1.17775506333222   11.09859407754141    2.18184361972164
C        -1.78262782117788   10.21540908275474    3.10158884939325
C        -2.57560900508482   10.74491041501911    4.16294705148416
C        -2.73975098978374   12.13808369734426    4.30000187009606
C        -3.55444036478711   12.59443734180237    5.34870695545561
H        -3.71339427721729   13.65338063072013    5.48343537282998
C        -4.13896989837362   11.67238046472186    6.18223037155803
H        -4.77432826471024   11.98195466993052    6.99614099276410
C        -3.91109769986357   10.30922486015861    5.97211758294435
H        -4.36542757987560    9.56929036264968    6.61822623911787
C        -1.34522761710019   12.50280428308722    2.35559722330278
H        -0.86190069232215   13.16069632917791    1.64895619200663
C        -2.08894929040254   13.00173950794117    3.37275162318671
H        -2.20671826975047   14.06723832169598    3.50213957841348
C         0.12510737051201    6.94891842121757    5.87544763001260
H         0.67810439065993    6.77738193692573    6.80803273348321
H         0.85381531902200    7.09440236058188    5.07038919398129
C        -0.74709301786628    5.73438941208320    5.56472384574430
H        -0.11959520886682    4.83617693807015    5.48725111073600
H        -1.47478136026302    5.58456154397278    6.36543832039171
C        -2.38879768264867    4.90765885507306    3.94377413053253
H        -3.07570429795559    4.74012215666682    4.77654469778551
H        -1.85031460895993    3.97250840620385    3.73979237614682
C        -3.17726399110573    5.33303688106466    2.70253723055545
H        -2.49722590074779    5.43609234657236    1.85007371330339
H        -3.91395263499535    4.55857083560252    2.45184431107398
C        -4.39791875319567    7.23989568633242    1.76235948524564
H        -5.29708028710039    6.69123992007767    1.44349480186220
H        -3.67128886359921    7.19194389007998    0.94561360245915
C        -4.74239730560827    8.68007553205258    2.03837412637305
C        -4.28391709142910    9.69356099336077    1.21032841313983
H        -3.68450772801584    9.44814495870595    0.34435530910005
C        -4.58094245625132   11.02252605515599    1.46095803084477
H        -4.20830538691491   11.77953296626177    0.78916745100920
C        -5.35141319366866   11.36238987244126    2.56793464012972
C        -5.83119713401093   10.34591186817544    3.39618069415320
H        -6.44785973967749   10.62007440690883    4.23730675595649
C        -5.53076523616684    9.02622991066926    3.13548525303849
H        -5.93676534470509    8.26262910599130    3.78223829758010
C        -5.39572114672334   13.68515569544502    2.04138777382807
H        -5.81725629247185   14.57718339300287    2.50072523348113
H        -5.86985924716911   13.52139958600983    1.06999448832562
H        -4.31811280123884   13.82130088123714    1.90288070810167
C         0.08802411828712    9.37207147316659    6.08496587233517
H        -0.59842689748420   10.22428007022447    6.06953512311798
H         0.75141161179312    9.44900933449484    5.21804964971034
C         0.88700600236163    9.39021499742355    7.36331131096074
C         0.23065970921107    9.53674594626180    8.58341019666524
H        -0.84046745339711    9.68559873372188    8.60098431716679
C         0.92871458286084    9.50152034682067    9.76841306916998
H         0.42806585574282    9.61583014505027   10.71618082123280
C         2.31511219745828    9.31706915879439    9.76966543884138
C         2.97658257637524    9.17394925356387    8.55358152698251
H         4.04492213974660    9.03431127776564    8.51531797363742
C         2.26025877635489    9.20781026489139    7.36904237033276
H         2.78951473452653    9.09384310013829    6.43337872125490
C         4.30088018782452    9.11336107510376   11.06600345547921
H         4.53778322034424    9.12730851331557   12.12808077157792
H         4.83923562869994    9.92380175403300   10.56487880065876
H         4.60604332437698    8.15222824777234   10.64020781312938
Cl       -3.69504759704083    7.18323854436864    5.92538373463295
O        -5.67414119074106   12.62987654382691    2.93398954929018
O         2.90521379426072    9.29366518661409   10.98648932245251
H        -0.77692521402063    6.07600747480119    3.58404683889204
H        -4.55611195521292    6.46977808495196    3.63107672066549
H        -1.27859843152113    8.06329180245420    6.79596138008792

