65
CSD_code = ECOPET | q = 0 | S = 0 | Stoichiometry = C23H37N3SiZr | MND = 8
C        10.88216207482086    0.28389315375938    1.61349801779358
H         9.94522581694479    0.80307547463736    1.44201984380295
H        10.65775961806058   -0.65398080651735    2.10985839681736
H        11.30266520832498    0.04223998792163    0.64286138864733
C        12.81941792557845    2.72156369858198    7.84802746423937
H        13.08207333297633    1.86047380835589    8.46858217940139
H        12.17476642979138    3.37091686313068    8.44060329134614
H        13.74019636615636    3.26198213800961    7.61554138289612
C        13.73100882465024    5.86248761242204    5.62306294792499
H        14.77080798208369    6.09562999047952    5.91635669907631
H        13.13475456029488    5.79845355399745    6.54049383592458
H        13.36758948170343    6.72237605830405    5.01941169984147
C        12.58692163313939    6.74345058491346   -2.83824606045314
H        12.63500897008609    5.76943964175852   -3.29359804537010
H        12.67598670422228    7.58078002997503   -3.50906004143278
C        10.11112649505756    5.85039870577871    5.97079029487151
H        10.08769737959787    6.93630904539286    5.75670135731685
H        10.87780277955347    5.66776902997002    6.73358908555128
H         9.12493887836200    5.59319879712167    6.40190858801884
C        12.13803691048665    2.27823509392722    6.58051189043653
C        14.27146877210775    1.37060327903569    5.46542068968070
H        14.85113642055108    2.29436972850654    5.37858918488463
H        14.52019495304526    0.71375711012516    4.63702963006595
H        14.57119628003721    0.87461217776914    6.39120450453714
C        12.30998752999832    4.52086677298544   -0.79803652911523
H        12.42330112010310    4.18957090896734   -1.81922544643345
C         9.27744284414002    5.13347175220772    3.86174427824130
H         8.34678626202816    4.74759100925525    4.32450904151046
H         9.49481919706644    4.54222270489136    2.96221120569220
H         9.06568816889204    6.17203066969830    3.54420794782858
C        12.42711132025996    6.91949559370661   -1.52973667820851
H        12.38844784031788    7.93288910311498   -1.14586104373441
C         9.64566771550400    2.66463024790701    7.27129498148656
H         9.28957052005325    1.77881015668541    7.80454059784575
H         8.79380495766613    3.11069871950174    6.75771640174225
H        10.00505368217757    3.37521429199865    8.01478375792076
C        12.29425001955202    5.89018775015981   -0.51479217790872
C        12.13904198823727    6.26565583183024    0.82473701299746
H        12.12039348290545    7.31934909196299    1.07285137810999
C         9.23173593066976    1.47648010435197    4.34399544296330
H         9.13426098093979    0.43749695082234    4.02907215829077
H         9.14208610735261    2.10617181611677    3.45275767529739
H         8.40220979104910    1.70207988052331    5.01234052502101
C        13.85961117030643    0.77694117078675    2.04731028950018
H        13.90054350411781    0.78860810394665    0.96279407937275
H        14.08245730831757   -0.23567942113278    2.36626597404657
H        14.65005426841522    1.42916329972375    2.40620227470274
C        12.01143995455106    5.33378983357611    1.82957610070186
H        11.88413036563147    5.64441532769115    2.87554883556790
C        12.18265287421993    3.57865864953954    0.19445930737687
H        12.19074756448771    2.52611252037225   -0.04850428687291
C        10.73597415040717    2.28789751494061    6.30225687690012
N        13.67106828653596    4.60530140685155    4.90610495497973
C        11.82211076686618    1.28643125928854    4.51440012213628
C        10.55218950033895    1.69200407657269    5.03389572923320
C        12.79566897011175    1.66086176265955    5.48952598885157
C        12.03064502354714    3.94902152696281    1.54318026195651
N        11.89001400560369    3.06228751098403    2.56257054130261
N        10.39462218026671    5.07756921667739    4.78237221521585
C        14.58955480411586    4.63911810721604    3.78071047594956
H        14.41454554082040    5.50471709904209    3.10963859460486
H        14.49434528154630    3.71887855812047    3.19066419641157
H        15.63537510832053    4.71925573700741    4.13256029599877
Zr       11.86915250089158    3.72455205888029    4.55155876926578
Si       12.11879361396856    1.34274656627606    2.63803964739071

