73
CSD_code = ECOPIY | q = 0 | S = 0 | Stoichiometry = C29H38ClN2OPPd | MND = 4
Pd        4.40297348226533    5.08534780287608   10.74831401234608
Cl        4.37259337402881    7.30633989712554   10.20089525564263
P         5.46558655465407    4.32517541591226    8.98746320903769
O         5.53545546904270    2.70055481569861    9.18194909113498
N         3.40775279790294    5.13491947786461   12.59648401775167
N         2.75628699061223    4.03073029877952   14.41143557088703
C         2.72188904297108    7.42578195389459   13.34550123569569
H         3.05957758240660    7.93796532955168   12.45720631440764
C         2.13238303053231    8.08158018414847   14.40345182443864
H         1.99334625001448    9.15086239171979   14.35481660048708
C         1.70532330201424    7.39691330596588   15.54470848272323
H         1.24485875783026    7.95272394063266   16.34791377138112
C         1.85412180851766    6.03050690977561   15.67330254593059
H         1.51506831999435    5.51573649468060   16.55976813212176
C         2.44878435277371    5.35790289502300   14.61563613993502
C         2.87626997721878    6.04686604991208   13.46043020091370
C         3.31863876923980    3.93592980037515   13.17320378657431
C         3.82455329406517    2.78995671196920   12.43014681591790
C         3.78871036374930    1.42920964754168   12.74761058687418
H         3.32533961798094    1.06638141662820   13.65005684649193
C         4.34712221285960    0.50966922479754   11.87858471693074
H         4.31752930329748   -0.53985317082500   12.13077684440913
C         4.94485898307659    0.89923148065771   10.68486409115371
H         5.37884292166855    0.17069464225714   10.01750807172762
C         4.96398058578758    2.24480536135089   10.36583052001014
C         4.40883835225854    3.19040745247372   11.22008082330484
C         7.24625503217086    4.78494379412561    8.88328377217808
H         7.80360034660828    4.04636526393580    8.29450679295180
C         7.71887811317843    4.77010156696197   10.34259590944055
H         7.66145129928075    3.74975948443731   10.73770531651454
H         7.03211391690505    5.40757218506049   10.93800376587219
C         9.13958252709060    5.30709865215756   10.47345112621689
H         9.43694508995530    5.31068415643635   11.52392133400601
H         9.82777285526070    4.65281761945683    9.93168889376491
C         9.21908411049252    6.71796376395637    9.89954906556781
H         8.55091639608113    7.37390999858620   10.46069897327393
H        10.23558202845931    7.10435440926129    9.99643573844095
C         8.79878067498179    6.71178439702537    8.43372544516413
H         9.48270370735367    6.07821644066609    7.86203866248409
H         8.85648780866018    7.72217656856164    8.02553056030128
C         7.37356590564973    6.18507359307854    8.28935612027586
H         7.09288033660308    6.17068008301084    7.23357528898382
H         6.68188216339370    6.85019138013771    8.81712150586529
C         4.62528766489336    4.50043332473102    7.36031680982624
H         4.76404142368381    5.53877590567116    7.03990556346016
C         5.12601724572951    3.53822202729295    6.28987023421634
H         5.04727391151307    2.51477520691087    6.66322273106389
H         6.17721456520383    3.73578742445799    6.06759511276109
C         4.28440723358362    3.68961184710202    5.02407176110290
H         4.41196001123407    4.69838237371456    4.62458930103735
H         4.62783213677503    2.98272686940245    4.26583214805824
C         2.80731956905802    3.45056357235729    5.32687971389986
H         2.21950331960415    3.57127712818789    4.41480432737322
H         2.67245201960875    2.42508901153566    5.67880064842804
C         2.31003354208306    4.42073853998079    6.39648609445564
H         1.25762043554724    4.22892613468926    6.61398534734024
H         2.39592791381638    5.44507785360451    6.02789503174476
C         3.14152517228603    4.27071944090779    7.66527638051894
H         3.01181493911240    3.25947704128700    8.06915673378996
H         2.81357597434810    4.99162755930880    8.43611943575002
C         2.48398960918509    2.98635657939937   15.36386901700334
H         3.29183569175272    2.25422199187310   15.32342271136086
H         2.48756645118582    3.43723287982258   16.36034189963906
C         1.12366724275846    2.33265991906169   15.10168344145304
H         1.12239263156029    1.88539194045671   14.10515493002928
H         0.36200655817875    3.11619763930989   15.11257214659803
C         0.76902638903667    1.27231015358684   16.14347502298956
H         0.84701878655990    1.70661748300326   17.14279433910606
H        -0.27152771261314    0.97838407206114   15.99234431652044
C         1.64671791465999    0.02838894340070   16.05996244356775
H         1.60657163568969   -0.39960008995818   15.06033472456422
H         1.29802804975394   -0.72279925026525   16.76449790603649
H         2.68233186529808    0.25639338944868   16.30091194674703

