21
CSD_code = ECOQES | q = -1 | S = 0 | Stoichiometry = C8H4AuN4Se4(1-) | MND = 4
Au        3.76334494721796   -0.00012051224511    4.93062833676763
Se        3.24786744453706    1.76896828239280    3.31016419720194
Se        4.27964220748695    1.76796507796110    6.55339645204929
C         2.69488179427381    0.70551513770011    1.85416764651010
N         2.29168935640575    1.37532948328748    0.79611677355459
C         1.88524916637076    0.69088547878969   -0.26709749123052
H         1.56022908110039    1.27820860389702   -1.11549056976376
C         4.56081061948570    0.70560751227343    8.08641584507215
N         4.76480732016621    1.37548299191407    9.20004538889007
C         4.96791522009719    0.69082095175811   10.32004792753442
H         5.12844538154482    1.27717113512633   11.21497143146514
C         2.69489307324697   -0.70540015299340    1.85424447926504
Se        3.24743032875344   -1.76868368465824    3.31059389075232
C         4.56089575244371   -0.70539296638886    8.08626374838999
Se        4.27967273155218   -1.76757830912175    6.55312269107770
N         4.76503882911858   -1.37546112624461    9.19974299701325
C         4.96806865237710   -0.69100056396719   10.31988915965450
H         5.12878031871621   -1.27748536052682   11.21469674177469
N         2.29157257463231   -1.37535622308799    0.79635228617302
C         1.88508693434295   -0.69102778103014   -0.26695004723604
H         1.55997826612992   -1.27844797483582   -1.11522188491576

