73
CSD_code = ECOQOD | q = 0 | S = 0 | Stoichiometry = C21H36CoN15 | MND = 6
Co        1.23479648429758   17.55949219791815   11.95088877647052
N        -0.43474984683463   18.49503886404260   11.93256966567401
N         1.57317501890900   18.06036280415150   13.75139101056498
N         0.37883315639405   15.88548734019301   12.53647215170846
N         3.83910715800271   16.99720429471625   12.85831602146981
H         3.53254260191218   17.58587976810534   13.62782952584666
N         0.51706307820865   17.68767465080057    9.23971993934064
N         0.86417238233850   18.58070588370952   14.52607223180223
C         0.08568260410476   15.32676426992963   13.70066581256376
H         0.24267740041700   15.84200535198428   14.62751525824401
N        -0.56691775164245   19.57837985244948   11.16717491434094
H         0.26254944213964   19.95440806277785   10.72009283763047
N         2.93648367582165   16.67724827543900   11.93167388328859
N         2.06954532965341   19.13299589150022   11.35038645863925
N         0.06546777544840   14.99051014604676   11.60209852780408
H         0.22454996639595   15.27429052501440   10.63622968191071
N         0.89346372259010   17.02524347840142   10.12953122107822
C         6.23559852459950   16.75266834925687   13.46739162608879
N         0.12120721996632   18.23876410091603    8.32898287977296
C        -1.63718214762135   18.24983033821414   12.43802516618138
H        -1.81227935368503   17.43016540946732   13.10705220419039
C        -0.43004532206799   14.04615112457667   13.49773042981813
H        -0.75391951872280   13.36309874598199   14.25430765901630
N         3.19439742157537   19.45300298158346   11.42457115348146
C        -1.82309353554413   20.04351200425698   11.15294085993275
C        -0.42964321767793   13.85785914881881   12.12631432951228
C         5.04972730787416   16.48913409577635   12.58765368983114
C        -2.54816390687626   19.19643569169867   11.97517321057653
H        -3.58826111870649   19.24854298361835   12.21833953864424
C        -0.85580710569763   12.70558417761652   11.26510072492423
C         7.52272159810433   16.44522368706197   12.69928568411002
H         7.56261357697665   15.39742978826392   12.41261165004874
H         8.38669369493913   16.66090991767717   13.32277539018541
H         7.58171956101834   17.05745761415130   11.80323213617446
C         4.90326884401671   15.77178042911979   11.41197703139760
H         5.65219198430956   15.22460564180936   10.87961124683831
N         0.27550650891460   19.06090985170640   15.36893656361338
C        -1.09805009597675   22.22368930300517   10.20297754879930
H        -0.76303661395323   22.51525424163270   11.19608580153380
H        -1.44629828478778   23.11380920097931    9.68482622418882
H        -0.25240278187641   21.82643329819911    9.64688449373677
C         6.14353159238068   15.85317167252252   14.70815074992729
H         5.22292402885491   16.04197818896100   15.25597403357515
H         6.98383545177960   16.04805407027681   15.36970264858190
H         6.16486764853601   14.80380640616040   14.42184590170352
C        -2.23494226312292   21.19922228983857   10.29081405819102
C         6.22607018965186   18.22866821775629   13.88755181324532
H         5.43008247816529   18.43096844373572   14.60057092735970
H         6.08352041978959   18.87288425639633   13.02232906760231
H         7.17079612972612   18.48549365891740   14.35984540351189
C        -1.31908093682155   11.54094254191874   12.14195837721448
H        -2.16857407947764   11.83492191854123   12.75316637614192
H        -0.51581430262679   11.20982756103979   12.79540993810562
H        -1.62051721771384   10.70372862051460   11.51741728343130
C         0.33409392051144   12.25962689813032   10.40452936933182
H         0.65204103093790   13.05254440767762    9.73195937006632
H         0.05490831859631   11.39694422536620    9.80470071709929
H         1.17655475743027   11.98258357647213   11.03458192766765
C        -2.53689561078585   20.64350416392134    8.89041662612533
H        -3.38187817494446   19.95968425200519    8.92736046442675
H        -1.67823002775148   20.10398835930962    8.49517426646749
H        -2.77932738125152   21.45753498244892    8.21215659345950
C        -3.48400389603843   21.86418430138778   10.87427001443885
H        -3.29152998262034   22.21509485351173   11.88536407955788
H        -4.31714212330310   21.16716601272587   10.90069346897779
H        -3.77180631437255   22.71472015706374   10.26139792875881
C        -2.00990438602084   13.16084015659813   10.36154899558604
H        -2.84922805446439   13.50553945990514   10.96163079084071
H        -2.34677297415572   12.33203024357259    9.74383281319602
H        -1.70013554002814   13.97136475936817    9.70607895459377
C         3.56864286137754   15.92442331070430   11.04195529322799
H         3.06529154952261   15.53970505399443   10.17742116198261
N         4.25211745099091   19.86390919674631   11.43997542464948

