42
CSD_code = ECOSAL | q = 0 | S = 0 | Stoichiometry = C18H19CoN2O2 | MND = 5
Co        0.77064783087689   -0.09268820932706    1.74048250372827
C         3.09946597857177    1.34127445493733    1.01282184922084
C        -1.60914796194071   -1.59158219326652    2.08631370969368
C        -2.45750394634205   -0.46802251945498    1.94718828313639
C        -3.84407632233296   -0.60206002665175    2.14674185235076
C        -4.69366540286164    0.45435986794448    1.95983327739801
C        -4.17558142863952    1.68978292789324    1.54894094520634
C        -2.83458350887460    1.85587986051171    1.34047325242929
C        -1.91442075839379    0.79212712165714    1.53954888008679
C         0.75200057136401    0.52327807888968    3.61569517222579
C         2.08693664225409    0.64442627320160    4.32263150158493
C         3.70278867428116    2.54535128301310    0.55972598492342
C         5.05370803647375    2.64323987236304    0.37489040889042
C         5.89654807217251    1.55251382698266    0.62755361387652
C         5.35647972481868    0.37228787074223    1.06074163932657
C         3.97051376285335    0.23268174093438    1.26307712237695
C         3.44291189595087   -1.00361499575795    1.70403386562776
C         1.82524221486746   -2.53229048317875    2.47592628087865
C         0.39410514509738   -2.82582427314335    2.03855466518712
H         3.04713818746605    3.38057303140927    0.36694100094651
H        -2.09706944282459   -2.55511025395221    2.25141019764717
H        -4.22977794817778   -1.56478557677048    2.45476855518522
H        -5.75497405593545    0.34144825994341    2.12042822181123
H        -4.84925687259858    2.52120632905760    1.39727822436225
H        -2.42875973290308    2.80403173406754    1.02270098605429
H         0.29067904184751    1.51005599607005    3.55680486750987
H         0.08975112545376   -0.14428573570871    4.17417663059452
H         1.92477191175646    1.11686351356925    5.29458890980596
H         2.55514430517629   -0.32147679288643    4.50029014653599
H         2.77925568113150    1.27006371524109    3.76505161762176
H         5.48225243576025    3.57411973847636    0.03162021963052
H         6.96117178799536    1.64804327922642    0.47835351398198
H         5.99379350289948   -0.47929640157739    1.25842298032628
H         4.16042933437007   -1.81306246903576    1.85712282179099
H         2.51453716297962   -3.31794582078735    2.14410761780880
H         1.86571089237156   -2.47582242733045    3.57053362649062
H        -0.09270471682792   -3.53847680628017    2.71498655621686
H         0.39933728664700   -3.25988300943369    1.02993561612547
N         2.18969276310747   -1.23740297468486    1.93657220947921
N        -0.31667039167424   -1.56126380892022    1.99828215816696
O         1.82968710377610    1.29754431047597    1.16627372947201
O        -0.66810858199162    0.99094169154121    1.32687478428668

