57
CSD_code = ECOTAR | q = 0 | S = 0 | Stoichiometry = C30H24OPRh | MND = 7
C         2.79319598392062    2.08093914164906    8.03435313934708
C         3.20085898781816    3.22338159968670    7.29065874833847
H         4.22038246206468    3.47381907471945    7.02681703591732
C         2.04855866435719    3.98515473033547    6.99148996572131
H         2.02336204615698    4.86122779786697    6.35908469619824
C         0.88736934919050    3.15079610496585    7.25703648704707
C        -0.46674067704716    3.30732916810845    6.95950315070967
H        -0.82332742819678    4.21762262257743    6.49856996559481
C        -1.33201266072348    2.27163056318968    7.24661134583170
H        -2.38053379238255    2.36964758825323    7.00570838423826
C        -0.87757638383377    1.08930900753213    7.83055522755784
H        -1.58145729471499    0.29327670886803    8.02652703593174
C         0.45315511579494    0.91572431146697    8.15526847335558
H         0.79095111436804   -0.01620225449548    8.58922000604609
C         1.35401097146538    1.94222432321190    7.87026108285606
C         3.70494650677687    1.03331829661006    8.62021714701083
H         4.73829926943566    1.36397990695347    8.49096461371648
H         3.58343400260924    0.07654867360540    8.10099187893939
C         3.38706857578357    0.84006422818583   10.11275861368923
H         2.37362991086552    0.42817771786253   10.19048537970248
C         4.31610671503239   -0.04293440824231   10.88430029736304
C         5.67786548086199   -0.12129457867045   10.60983777050565
H         6.10570296207186    0.45294433557797    9.80229678366607
C         6.50599612202245   -0.93112574161668   11.36689862818186
H         7.55969072900427   -0.98098679476934   11.13432353048053
C         2.41618372614434    2.25466697067876   12.47023011887010
C         2.88796436891973    2.79759240827780   13.66059990285784
H         3.79563177442859    3.38384372094602   13.66360523243127
C         1.01068552809451    1.87299336388193   14.83843085944477
H         0.47199282568264    1.71491603999296   15.76092905430588
C         0.50813130623795    1.37281143714293   13.64716055068252
H        -0.42864086872892    0.83471945093496   13.63862187294311
C         1.19911841927637    1.57489785369671   12.46846268395373
H         0.78561874860511    1.22161738813901   11.53220564016583
C         4.93536127723214    2.98817630570046   11.26429441860834
C         5.53362972935826    3.96977490135089   10.48004914506219
H         4.92630005690644    4.47609695005123    9.73076977473260
C         6.86389241327321    4.29872879716157   10.66371466594955
H         7.32320482947036    5.06253523779455   10.05351147161163
C         7.60550774084538    3.64707911948438   11.63608887222726
H         8.64494376926499    3.90108053793755   11.78322979765374
C         7.01350484071289    2.67356851406921   12.42477562940614
H         7.59146038054792    2.16817059393159   13.18467191024719
C         1.76444995055400    5.27618295453993   10.17146088549662
C         5.68367081842155    2.33887373287928   12.24279749973400
H         5.22912924293470    1.58021164005488   12.86303778632381
C         2.19044481745396    2.59756260152456   14.83902176776647
H         2.56744256015766    3.01529591505321   15.76119570065716
C         5.99278701064656   -1.66733044781215   12.41993345456136
H         6.64126875043031   -2.29565178557747   13.01221992184255
C         4.64003258339246   -1.59426521284217   12.70724908846475
H         4.22754865168710   -2.16529073839440   13.52626817285921
C         3.81121647263646   -0.79354009164028   11.94395554651929
H         2.75619024970874   -0.74535670852250   12.17521953940214
O         1.48400913107084    6.15607430705797   10.86161234985049
P         3.21038943609639    2.56936002990002   10.86636628387630
Rh        2.26889272583048    3.78003208917507    9.21947101354539

