63
CSD_code = ECOTEV | q = 0 | S = 0 | Stoichiometry = C30H30OPRh | MND = 7
C         5.96505898799072   12.46643999569203    2.93294021591078
C         6.42919455130869   13.72608177964334    3.28779717818672
H         5.74397533198433   14.47078702071074    3.66674801524678
C         7.77291159926391   14.02799712754055    3.14312804897459
H         8.13383174301590   15.00804151146055    3.41976551709823
C         8.65206832702330   13.08376824051708    2.64063253280779
H         9.69849045054165   13.32676350211504    2.52909981450958
C         8.18822828769349   11.83174379894318    2.26567525308892
H         8.87138330708921   11.10135976849758    1.85761948448851
C         6.84851267235943   11.52789033215319    2.40467145633202
H         6.45822305763912   10.56632309348385    2.08935671544097
C         3.29440405737404   13.36717183032446    3.64098952526792
C         3.48167498787514   13.95878502125141    4.88614302884009
H         4.25493788157759   13.59826441561406    5.55057015775904
C         2.67497440750151   15.01254772785691    5.27694697025447
H         2.82014911087509   15.46976184650171    6.24514542259481
C         1.67863851435211   15.47936897643789    4.43371429790837
H         1.04780921357297   16.29733329234023    4.74892167130314
C         1.48864333340961   14.89450595854671    3.19236114135790
H         0.70816283361885   15.25209741366269    2.53759593418011
C         2.29398908702016   13.84188699606134    2.79832540206677
H         2.15149639789943   13.35941399145525    1.83420435977390
C         4.27242470550632   10.82309883816199    4.54008360521281
H         4.97270784869258   10.01120707965867    4.31336039965722
H         4.63735825367887   11.35616005822937    5.42141956585087
C         2.85219920814022   10.26109869076798    4.72924598638477
H         2.22959314117522   11.06251380547530    5.14703727580580
C         2.80877649466784    9.06812598025667    5.70244115274224
H         3.45642585788434    8.27416020229080    5.31306757077192
C         3.30523485315586    9.45610945049174    7.09742936770821
H         4.33821527794355    9.80585842890189    7.04803722887174
H         2.68983363428946   10.27378883807128    7.48186827901158
C         3.22950841593906    8.27135410488847    8.05744660311639
H         3.89079843566852    7.47702907578656    7.70258671626308
H         3.57800493804413    8.57779883997530    9.04628846550166
C         1.80461674288326    7.73730730195139    8.14812361284837
H         1.76993600633407    6.87805610340509    8.82107640613441
H         1.15179866368082    8.51123721172731    8.55856875179391
C         1.30812671379349    7.33914041213466    6.76278186939777
H         0.27939262532444    6.97817842551443    6.82287030708095
H         1.92556551086573    6.52438071349310    6.37678495655079
C         1.38012705782206    8.52596711190379    5.80763878193042
H         1.02402014502157    8.22466955780821    4.82093305667810
H         0.72266784175399    9.32159221890832    6.16718904586751
C         2.27961948969972    9.89664940646645    3.37375820892258
C         2.62508049350243    8.76497496870165    2.57966563664761
H         3.35852794614386    8.00960781779474    2.82910728260856
C         1.86489938678000    8.81421447298662    1.38907975908041
H         1.83550203346393    8.04219923763070    0.63316061548883
C         0.81176933357945    9.79909491628208    1.57644590097631
C         1.04672467563581   10.44654692028483    2.83260753071058
C         0.14947431421830   11.40627111842805    3.30060201635633
H         0.31180677927548   11.90400056162412    4.24734633027185
C        -0.96484762950684   11.69904423456721    2.54093705321017
H        -1.67749087121532   12.42681289425882    2.90114867655059
C        -1.19239134607311   11.06993003721449    1.31659326213615
H        -2.07706118084994   11.32406053874792    0.75098089590073
C        -0.31443008665520   10.12815727930346    0.82063354621692
H        -0.49744116090201    9.64300212540666   -0.12783047363543
C         3.84799903595800   11.22602363098081   -0.04275664965976
O         4.37104263970194   11.63816194901808   -0.98467594825974
P         4.23339810427231   11.92438366287509    3.04511748153038
Rh        3.12872752971922   10.66149813681517    1.55584772636902

