65
CSD_code = ECOWOL | q = 0 | S = 0 | Stoichiometry = C22H32N4O2S4Zn | MND = 5
Zn        0.21668123976698    2.97123971651243    3.33560471897835
S        -2.23624953283610    2.81317921111165    2.89797248797471
S        -0.31482137464341    4.37544936749888    1.32456295710861
S         2.68526135113351    2.63408273001194    3.33097688718926
S         0.76325262735932    1.25381567936820    5.06791687727260
O        -5.75550668297847    1.94984034182651    1.13162635354507
H        -5.59102570462273    1.77331913537463    2.06538066326192
O         5.65767484927711   -0.82787367562465    3.88089835295066
H         5.83952434834902   -1.34450887068220    3.08955232350969
N        -2.92253898916176    4.31252878678487    0.83979308521044
N         3.39513313941898    0.98396717298819    5.26127606973538
N         0.16634025567297    4.62762721466802    4.73800381552623
N         0.24735918909493    9.90555769280579    9.38950910493819
C        -1.91812297666177    3.87802299043425    1.60374725615727
C        -4.27518179204547    3.88371880809666    1.12137359244267
H        -4.97338022464651    4.60869450173300    0.70514780032144
H        -4.41181464965269    3.85718364154655    2.20831284538297
C        -4.58618017512069    2.47772519658022    0.56684984388856
H        -4.76731945209100    2.51852498532820   -0.50870865928831
H        -3.72616827495859    1.82304905085740    0.75465066619846
C        -2.70059506887516    5.26211800005888   -0.24644675231694
H        -1.61665048084193    5.31182894105653   -0.38614351155259
C        -3.19829099522542    6.65142945185617    0.15095258512821
H        -2.92382003346394    7.36877408554801   -0.61716931768972
H        -4.27946923111436    6.66891498661087    0.26702233203652
H        -2.74045507619306    6.95620763274894    1.08888933248228
C        -3.33096734055214    4.78450682073970   -1.55028685428519
H        -3.02846185719117    5.45131675316263   -2.35340522842261
H        -2.98770836991259    3.78157132537357   -1.79000044150487
H        -4.41656972325141    4.78555999887068   -1.49809761919748
C         2.37735364516857    1.55898188869174    4.62012762791901
C         4.74166224448067    1.19855262110204    4.77276355465202
H         5.44991588901241    0.90048628535514    5.54212486932066
H         4.85949213672510    2.26487230824113    4.56424077980865
C         5.07223315321322    0.40171901129982    3.50342883823594
H         4.15972822086044    0.23841798336509    2.91840706728514
H         5.77448168592787    0.98248405941172    2.89215164247695
C         3.15362606211996    0.03913656811404    6.35076106898276
H         2.14875769179552    0.26824812956097    6.72031429029211
C         4.13942214024831    0.22467034837314    7.50093771327344
H         3.74358761437838   -0.27440069100341    8.38159860767170
H         5.10670600005695   -0.21745019021578    7.27493924945467
H         4.26818871808247    1.27921742759574    7.73424223662911
C         3.17309825941296   -1.39373016680953    5.82535927925283
H         2.97924808560133   -2.08631959754388    6.63950342078170
H         2.40127848287715   -1.52207157410593    5.07034570362299
H         4.14177440874984   -1.62007205233153    5.38763516765046
C         0.84404795167814    5.74194615982452    4.48777537733061
H         1.37012689158161    5.77396635527544    3.54345312029063
C         0.88368001630661    6.80540805812322    5.36848765731513
H         1.46149654314126    7.68411579871758    5.12803714988481
C         0.19191157131964    6.71578898786756    6.57586588684750
C        -0.51510187040020    5.54026057816307    6.82576141032174
H        -1.08336832655866    5.42101493667407    7.73498038296554
C        -0.50020360228462    4.53108512979887    5.88259887184830
H        -1.03667931621755    3.60557852995445    6.04133058067274
C         0.20924177290683    7.81726438151274    7.54755655441995
C         0.12471405324922    9.14525163515491    7.13272778501413
H         0.02314050766628    9.39109995325251    6.08689303009106
C         0.14449687214822   10.14300829108137    8.09365186052286
H         0.07569292489781   11.18587415114995    7.81360256588040
C         0.33115381025823    8.64757524633330    9.78520311981377
H         0.41593279541312    8.49836825094355   10.85350927057387
C         0.31278966105586    7.56948283297186    8.91525570225141
H         0.40034431111674    6.56059669081897    9.28806698964691

