131
CSD_code = ECOXAW | q = 0 | S = 0 | Stoichiometry = C50H74CrO4Si2 | MND = 4
Cr       19.73261018965723    6.00106189845878   10.75769086431560
O        18.14282043502401    5.98497722392908   11.30657894422066
C        19.67653155107290    7.75924851579709    6.85743015269785
Si       18.67056318829197    6.17455458066536    7.44709353317454
O        19.06739452582534    6.01190347556825    8.98488897344662
C        19.55356502934269    8.85529283435159    7.92261807017568
H        20.29584330494686    9.63579080683270    7.74995064655064
H        19.71052927722091    8.43059213959435    8.91361981564202
H        18.57351944708006    9.31862109050222    7.90811122157726
C        21.16584279171460    7.42205602180004    6.74360099381613
H        21.74970120791693    8.33003145775765    6.58273424969663
H        21.35925793243437    6.75516206263893    5.90830007054774
H        21.51830226434239    6.94982445852368    7.65672260894225
C        19.21662035797494    8.32504288236885    5.51401878613281
H        19.84383042667398    9.17113859848478    5.23025398960621
H        18.18981274122592    8.67556757674014    5.56553209399754
H        19.28271242629807    7.57676970297296    4.72895401763633
C        19.26164266643698    4.51412923238326    6.57681373009264
C        20.60971535445491    4.08493646443586    7.16339288008356
H        20.88393893985518    3.09244129462496    6.80286190369039
H        20.54721852590714    4.05000515674957    8.24975094502044
H        21.40673215484436    4.76771335371401    6.89044907679941
C        18.28648061595787    3.36870291533763    6.86008506945834
H        18.69434828825338    2.43070697984218    6.47986297368562
H        17.33007430409893    3.53198523179703    6.37259356621741
H        18.12539942552408    3.25938477444557    7.92904984358082
C        19.39555910555753    4.64908601624709    5.06023719412636
H        19.68004880956269    3.69154211269602    4.62217670196261
H        20.15731466985314    5.37546176605793    4.79310823100375
H        18.45597190827398    4.96044363210588    4.61207800879330
C        16.72756282627757    6.44076952166320    7.34737728257779
C        16.00688701956900    5.43223983336602    8.24687504436193
H        14.95067598509161    5.69128237328265    8.33401193033224
H        16.44241155032826    5.44918653026343    9.24146572075846
H        16.07098385998387    4.42147962251022    7.86097328533527
C        16.17116539692130    6.31168242461557    5.92896951436556
H        15.09981483372794    6.51568483246091    5.92680190145176
H        16.31924074880855    5.30859226251723    5.53902141153063
H        16.65039743864171    7.01285582883744    5.25191263800754
C        16.35280276742239    7.82664665673888    7.88226233076582
H        15.26915599104247    7.91469912097303    7.97623723690237
H        16.68899836653461    8.61333239441833    7.21372096643027
H        16.78869940646081    7.98450143674447    8.86578388985830
C        16.92340246758130    5.84041085237774   11.61648553228855
C        16.03500914652247    6.99550247044373   11.64274735700928
C        14.64526037966443    6.86304061899175   11.52694831315673
H        14.20570302781721    5.88233590221456   11.43241742458872
C        13.83961882444583    7.98291333109509   11.48728569177833
H        12.76961193115454    7.86652738184353   11.39483901843432
C        14.39251584397778    9.25283227462778   11.55298008699458
H        13.75532058795132   10.12386937036659   11.52361463858043
C        15.76936396578912    9.39711914308639   11.63753736743343
H        16.20780470818569   10.38360457336921   11.66932713110705
C        16.58329841149046    8.28523739697818   11.67405706182362
H        17.65683826934126    8.39420695110566   11.73079771523097
C        16.44600003795477    4.47948651660614   11.89104753875151
C        17.03432216207723    3.40612233305369   11.21403923101963
H        17.78989908110546    3.61373369289442   10.46590752664364
C        16.64483229882006    2.11037057917492   11.48339657721322
H        17.09680666029792    1.29042705727632   10.94513487792987
C        15.67466427475970    1.85975757013325   12.44201236332918
H        15.37016694331544    0.84560275948769   12.65318184807005
C        15.10509546398128    2.91486958686401   13.13716646429878
H        14.36555472422770    2.72043081478865   13.90002306449555
C        15.48432336869868    4.21613143856212   12.86977082781394
H        15.06472536473465    5.02970067968764   13.44206073340916
O        21.32271937965765    5.98584916749580   10.20959620347331
C        19.78899212424938    7.75960175781883   14.65781309851322
Si       20.79501145968108    6.17490755880301   14.06834191767251
O        20.39801544796921    6.01235005961491   12.53058129758316
C        19.91212214388406    8.85573133073935   13.59271719308104
H        19.16999225140670    9.63632270876183   13.76553761926827
H        19.75498106740491    8.43120690341740   12.60167108463089
H        20.89223812701652    9.31892572007782   13.60717655325062
C        18.29968119009214    7.42231026651474   14.77154159444591
H        17.71596734790726    8.33031474648766   14.93265196008855
H        18.10631920694253    6.75536328304015   15.60680339700801
H        17.94702964177612    6.95024764400256   13.85838615360751
C        20.24931995839172    8.32513612189104   16.00118150082582
H        19.62209363023912    9.17118379751884   16.28500082708569
H        21.27615933042580    8.67565306288428   15.94977022297897
H        20.18309498511072    7.57681162713907   16.78617117458593
C        20.20363775190587    4.51424979555925   14.93804493017942
C        18.85544666788000    4.08527061371983   14.35154593848496
H        18.58117898309066    3.09274928686365   14.71197952433919
H        18.91780524316228    4.05049754080627   13.26517080651827
H        18.05853469854541    4.76808624413011   14.62470774139217
C        21.17876816560981    3.36886418774426   14.65447038386106
H        20.77084812345277    2.43083675257056   15.03453409071780
H        22.13525510968272    3.53194084903962   15.14189013010403
H        21.33969785921071    3.25972991275935   13.58546601684273
C        20.07004712521377    4.64912631177327   16.45464046635369
H        19.78544798924383    3.69149951740532   16.89242429596687
H        19.30836397234950    5.37549406333232   16.72201721738044
H        21.00971354537538    4.96020542635763   16.90285677522744
C        22.73803613160674    6.44096573203729   14.16761391835290
C        23.45843727828342    5.43249211245626   13.26781924184438
H        24.51470761736491    5.69131326263013   13.18094309873595
H        23.02306209723313    5.44987634615969   12.27315338482639
H        23.39409080573336    4.42162515340968   13.65340141227608
C        23.29400883687747    6.31133322998650   15.58613402682078
H        24.36531736364942    6.51540469727639   15.58823151077661
H        23.14606364246571    5.30811481666773   15.97586087768546
H        22.81485115288507    7.01239588269987   16.26337015800030
C        23.11272343081728    7.82696133715827   13.63296710753885
H        24.19637716924954    7.91485095754026   13.53905822954174
H        22.77664877767371    8.61350096694397   14.30175026342050
H        22.67688839253207    7.98516594289737   12.64946602042835
C        22.54199998865888    5.84118064847559    9.89924624826294
C        23.43043655564744    6.99617480017056    9.87253156034449
C        24.82016705294800    6.86348500907241    9.98808411764521
H        25.25946871781503    5.88276526294357   10.08349539793280
C        25.62596435932564    7.98323333332816   10.02776971596380
H        26.69590673569826    7.86667885444191   10.12070698900655
C        25.07323786532192    9.25323625359911    9.96214795576716
H        25.71057388538954   10.12417812279974    9.99123528312442
C        23.69639744831512    9.39773526075079    9.87784328972221
H        23.25816866688310   10.38429264255953    9.84547818703593
C        22.88229149966086    8.28598362900272    9.84145042737590
H        21.80878164260018    8.39510475720114    9.78436577274027
C        23.01912768722424    4.48015144644156    9.62441084160077
C        22.43087176774679    3.40694124524342   10.30172765822552
H        21.67503918460415    3.61472815828310   11.04954667237186
C        22.82007604724216    2.11108834226094   10.03243879075030
H        22.36752467164679    1.29126044371337   10.57037145039149
C        23.79000117871342    1.86021159523801    9.07364410136690
H        24.09421609912991    0.84597451377043    8.86243950840181
C        24.35963895422406    2.91516551962990    8.37829564229860
H        25.09959367465977    2.72055289694910    7.61587812312716
C        23.98056280522189    4.21652793267351    8.64551018243106
H        24.40092228721930    5.03002225217420    8.07367201562881

