84
CSD_code = ECOZOM | q = 0 | S = 0 | Stoichiometry = C42H37ClOP2Pd | MND = 6
Pd        9.74723867640019    3.98957319087042    2.02652221439253
Cl        9.09619811224724    2.70514709998084   -0.20488750493884
P         8.71745623961393    2.34980156288232    3.30966484977247
P         8.01700831639191    5.30710588404802    1.24977180747574
O         6.41737916874501    3.26179834719306    2.03133212071003
C         8.26909908302420    3.00999078933103    4.94511848069377
C         7.02935308723991    2.83216432450406    5.54418439567936
H         6.27652530114564    2.23014718144288    5.05523877438785
C         6.76212359764797    3.42665121299081    6.76589371144733
H         5.79459699037258    3.29087561425884    7.22711369074030
C         7.72813306850243    4.18847548823912    7.40007987720684
H         7.51460289688249    4.64632008628887    8.35475369300054
C         8.96949173517529    4.36748933395547    6.80744297626281
H         9.72471401331883    4.96123028343812    7.30279587225881
C         9.23209195604636    3.79246832775945    5.58043965323701
H        10.19329806382706    3.93779171758018    5.09387593729914
C         9.92248901883610    1.03019866730294    3.66969284301519
C        10.34998437797021    0.65360397053611    4.93490990484856
H         9.96289642130379    1.15495615584487    5.81153535385792
C        11.27664918572035   -0.36839285271415    5.06745646195841
H        11.61315143910414   -0.66085498538731    6.05191329893611
C        11.76910575961334   -1.01515942715795    3.94678802174978
H        12.49107461342066   -1.81089652686382    4.05889786287188
C        11.33973580787633   -0.64135214190465    2.68120387457234
H        11.72581556094981   -1.14541670262148    1.80760059323461
C        10.42235553611308    0.38080393404450    2.54021065240897
H        10.08391178960501    0.70032981747467    1.55889180765558
C         7.30104154152351    1.28903200484750    2.88972831764828
C         7.21372614770821   -0.07520377882668    3.13387565775952
H         8.00578808002793   -0.58630184889188    3.65967393361429
C         6.11221078619709   -0.77596416790098    2.67882948049510
H         6.04289781329613   -1.83789362771298    2.86115160413452
C         5.10197215330454   -0.13697698647557    1.97733320906359
H         4.26824845704087   -0.71964929768886    1.62033174155733
C         5.15271986904154    1.22814345631462    1.73575679106739
C         6.25977815511362    1.92080774936350    2.21813227477253
C         4.07032454830055    2.02892518887335    1.03477334461942
C         3.19014957228396    1.16126051468276    0.13723858606613
H         3.78817878790173    0.67569166126425   -0.62998037723734
H         2.42461788474499    1.76727245737164   -0.33976543621742
H         2.68074726435834    0.40254175455205    0.72558961052634
C         3.19504803298806    2.68906625235150    2.12043070576939
H         3.79804123072320    3.31890013129217    2.77209955427132
H         2.71183998025727    1.92555844618540    2.72700687475225
H         2.42917927676928    3.30736339957510    1.65662749603157
C         4.76798669841357    3.13923411078013    0.26996221001465
C         4.34603692620690    3.66863480292522   -0.94212309690248
H         3.48980073562965    3.25204186499321   -1.44758866108010
C         5.01185491900135    4.73558720852168   -1.52266944109405
H         4.66067928718698    5.13011045299603   -2.46445776863711
C         6.12192157920142    5.30040740485015   -0.91917801937877
H         6.63625695775726    6.12550982041672   -1.38733833942524
C         6.57533921178988    4.77807559982751    0.28251907987004
C         5.88558124629371    3.71732388110507    0.85749600158537
C         7.23070086660390    6.18255673322975    2.64364409380025
C         5.92293833880363    6.65171401482848    2.63027707388049
H         5.31852872561926    6.53514013609216    1.74113288149283
C         5.39980304773707    7.26280097092558    3.75641222455372
H         4.38041148423817    7.62126346477969    3.74746581036467
C         6.17595808229536    7.41614943615334    4.89379957817318
H         5.75983072243301    7.89017830515898    5.77062512209705
C         7.48437237806462    6.95936030989533    4.90846698146178
H         8.08958292053334    7.07895831123942    5.79518486727533
C         8.00455048617845    6.33890110121501    3.78931777667371
H         9.02753328607231    5.95765594874932    3.78455808720378
C         8.61736411328506    6.64705090047139    0.17374066354274
C         9.18299216453493    6.24699905192424   -1.03754305628488
H         9.21897455090844    5.18876039986293   -1.27297192033849
C         9.69054595330404    7.19238024575383   -1.90722441965116
H        10.12639904894626    6.88346908036000   -2.84611943282729
C         9.64363496310141    8.53805491570814   -1.57231904906865
H        10.04331209504738    9.27787726802990   -2.25072697785015
C         9.08887960852353    8.93499819473910   -0.36740119299264
H         9.05607028561810    9.98335623638252   -0.10676080349070
C         8.57483510732882    7.99333978139347    0.50928667088493
H         8.14463688395651    8.30343190853246    1.45204580096713
C        11.23985398853966    5.29989840218250    1.23896184780666
H        11.42240933000187    4.84009324480835    0.26717947507263
H        11.17151839578619    6.38463832677245    1.22357973994047
C        11.73161338277115    4.66392944065248    2.38708197052582
H        11.91897500507416    5.23222155687772    3.29938826126781
C        11.72697122791944    3.26285277697861    2.40300594817870
H        12.06041004789159    2.74049730101370    3.29582264970076
H        11.90884654875853    2.72932342638516    1.46839276920294

