103
CSD_code = ECOZEE | q = 0 | S = 0 | Stoichiometry = C42H46CdN8O6 | MND = 6
Cd        4.78370601512968   11.15071831494128    0.00036663950717
N         6.11906797842048   10.98444836594409    1.86065474253590
N         7.04302248404361   11.93385476083594    2.05654327470315
H         7.07585560956492   12.77313917032041    1.46220277222140
N         3.76684068852422   13.10596042568684    0.65610743289944
N         4.52335875447536   14.20485848817461    0.77511302604028
H         5.54739287936488   14.15421953128951    0.70436478923485
O         3.10550319898087    9.90637820994966    1.07713060280854
O         2.36262034530062    8.30494457371635   -0.26156541967009
O         0.63798870738520    6.62980337981343    0.61180980858363
H         1.27084539194661    7.09534909950690    0.00310884037884
C         5.60763435613968    8.75174992011955    2.79963253874931
H         5.52458928432502    8.42695773863624    3.83457582239482
H         6.09058513421498    7.95673384639888    2.22998333566588
H         4.61615507780063    8.92438710863939    2.39341067611657
C         6.40325015765144   10.00362314110528    2.71169160648625
C         7.53755008653453   10.34339171482119    3.46342303195765
H         8.00349703522966    9.75705919625788    4.22887307836223
C         7.92499953770157   11.58884983109776    3.00810682700636
C         9.04347158826240   12.48034922376386    3.40721520996494
H         8.77547915835740   13.05407748768782    4.29453733825229
H         9.27233932672398   13.17704922931011    2.60418723175789
H         9.93044371374960   11.89554184668722    3.63891085490353
C         1.34781493369978   12.58715336188808    0.58685784508587
H         0.95905141380189   12.58540717174550   -0.43214307155339
H         0.54808580703831   12.89801642650196    1.25562674488675
H         1.66693805663176   11.58230655194236    0.84507687642946
C         2.50305460699046   13.51545121604913    0.69503786452693
C         2.46162563517039   14.91027458171666    0.83989656472488
H         1.58794820760654   15.52610531914121    0.90461179987393
C         3.78040380012787   15.31865046649516    0.87972228273757
C         4.39331878276163   16.66341397151104    1.02412369466753
H         4.53998243668176   16.90397376061881    2.07737408144240
H         3.74750731288519   17.42214516954322    0.58952345304689
H         5.36232938568285   16.69041862020829    0.53053549087680
C         2.37586667623299    8.91937722260893    0.86177592996145
C         0.67609649703805    7.31057676873959    1.76691900698302
C         1.48835242557052    8.42371061912521    1.94473539724747
C         1.48883995368158    9.10436169185723    3.18129967584722
H         2.13634398593077    9.96429613955932    3.27212665575482
C         0.70580095223310    8.69170771034607    4.21439327857513
H         0.71202132383502    9.21821257400443    5.15742454383299
C        -0.13077880707354    7.56092795999602    4.07014326795730
C        -0.14947526480560    6.86109927897425    2.83846424758614
C        -0.98075911397626    5.73440500691001    2.69383528179439
H        -0.97813351732489    5.21647244042928    1.74702314857474
C        -1.76723554618199    5.31206788347478    3.73039393807841
H        -2.40274778930573    4.44623704824962    3.61546199512887
C        -1.75268822971221    6.00109183782476    4.95093055880156
H        -2.37913583725635    5.65775197303919    5.76177488053467
C        -0.95360731446357    7.09938141309588    5.11622417657553
H        -0.94148552142652    7.63243477056609    6.05653551377421
N         3.44877128492292   11.31663939148301   -1.85974705833245
N         2.52474684491997   10.36730800326424   -2.05566238842610
H         2.49196676379246    9.52801661402935   -1.46134695045113
N         5.80079855497060    9.19596507278762   -0.65586960893104
N         5.04440208378284    8.09702146791749   -0.77511980712322
H         4.02035578626424    8.14738610309046   -0.70377927223855
O         6.46118301899376   12.39538113255923   -1.07592558182563
O         7.20530606743417   13.99649088701138    0.26247507505268
O         8.93006673347343   15.67111219161272   -0.61199093841999
H         8.29775252303503   15.20563758444994   -0.00273192892356
C         3.96072605259492   13.54907893437469   -2.79898683745837
H         4.04407136196976   13.87311738755201   -3.83409789131052
H         3.47847655047998   14.34483885259274   -2.22991987887141
H         4.95201469026476   13.37600007141917   -2.39265985097665
C         3.16431432688407   12.29776652835975   -2.71034713301616
C         2.02972107385680   11.95830253218947   -3.46176741125159
H         1.56332299693696   12.54503175342252   -4.22663130111284
C         1.64237287638141   10.71271607465598   -3.00671543978945
C         0.52456503776936    9.82075555290005   -3.40668580347233
H         0.79320100076573    9.24839733183942   -4.29471986059195
H         0.29639474643101    9.12282149307011   -2.60454138865465
H        -0.36300347968608   10.40491219521616   -3.63773770922388
C         8.21984687914901    9.71510073094443   -0.58759943212054
H         8.60950556996739    9.71641865055710    0.43104961002557
H         9.01904934179881    9.40474444574693   -1.25725133809593
H         7.90033455891450   10.71999105956021   -0.84503686244447
C         7.06464444474095    8.78669739988100   -0.69523407928649
C         7.10624851690640    7.39188016668922   -0.84002288736460
H         7.98001762122624    6.77618932781640   -0.90479293066714
C         5.78751975165170    6.98333980065092   -0.87974024821661
C         5.17481944003031    5.63851330397825   -1.02434241495907
H         5.02808996207907    5.39819905520710   -2.07764048551344
H         5.82083113088503    4.87980606948301   -0.58999187592344
H         4.20586805698233    5.61123754480117   -0.53064726655436
C         7.19144235111698   13.38198906152584   -0.86077676670992
C         8.89137299553433   14.99005411586677   -1.76691593793682
C         8.07861554718678   13.87721688820930   -1.94421683885715
C         8.07684028237415   13.19671609544267   -3.18086672612302
H         7.42946590150332   12.33663511969367   -3.27106413637559
C         8.85925920420188   13.60916165286155   -4.21450671285166
H         8.85254210730419   13.08243354337359   -5.15740366996199
C         9.69636706147245   14.73962328658611   -4.07077773894024
C         9.71611658725882   15.43945101186296   -2.83911370947511
C        10.54766738787293   16.56601534586838   -2.69512332362643
H        10.54632218544293   17.08358301402878   -1.74810435189490
C        11.33360649543904   16.98807066629426   -3.73220184792510
H        11.96984561837074   17.85342367845770   -3.61754088400896
C        11.31832027631126   16.29882274816497   -4.95260209104523
H        11.94408591714302   16.64214301038657   -5.76396919245565
C        10.51877811394908   15.20079425734922   -5.11735680850943
H        10.50551803504888   14.66797823204974   -6.05778927141466

