81
CSD_code = ECUBEM | q = 0 | S = 0 | Stoichiometry = C32H36CdN6O6 | MND = 6
Cd        6.50009329696666    4.90548715538266    5.22541746811026
N         5.81445636524390    6.46462505461389    6.63964386966953
N         4.51197258567056    6.52564081186691    6.92770088911227
H         3.89254889530799    5.74410493197336    6.72376820530797
N        11.92295074538928    2.99030505159882    2.82358637826497
H        12.35457249779696    2.09900705756293    3.02717553177669
O         7.83781034495600    3.34378420670544    4.40069814568406
O         8.42105528885993    4.44000570335423    6.22375694632921
O        10.49820978243067    4.55373113493403    3.66622945687639
C         7.80243948003167    7.89318404376312    6.89003354560387
H         7.96394848168103    8.55237317534240    6.03637713123752
H         8.33657455905540    6.95969993527398    6.72347207862369
H         8.19378647375894    8.38478370225331    7.77829406031885
C         6.35282576655156    7.60521970065748    7.05497312492448
C         5.35806250012528    8.41058134249757    7.62758910545346
H         5.48029108932375    9.38538384032483    8.05432989448599
C         4.18712654082593    7.68035726464987    7.52904883153769
C         2.79805984083001    7.98581524206973    7.95671882535559
H         2.11552984410994    7.24947582619235    7.54081895496784
H         2.50416216619772    8.97802496247569    7.62008105753671
H         2.71874961243885    7.96300079169248    9.04318549774775
C         8.57664809666882    3.52846989114659    5.38664849074824
C         9.71415273858928    2.56399698469625    5.61098371429974
H         9.57000402979799    1.87925333343119    6.43497294942856
C        10.81082696097102    2.52021388243001    4.86186643196748
H        11.58409594981681    1.78411501385617    5.04571865194912
C        11.03403083637365    3.46112647959742    3.74390569801361
C        12.33952948578253    3.57240191889413    1.62170759533275
C        13.43420328592862    3.00378273369066    0.97377064831240
H        13.92381518568644    2.14452290019312    1.41346404345900
C        13.90511901842943    3.51784955695831   -0.22329201830187
C        13.26293728145072    4.62026429220748   -0.77601360543381
H        13.61934094883545    5.03251407930461   -1.70853560588900
C        12.16956329089328    5.18133267953746   -0.14246485076574
H        11.66927510623249    6.02899644435232   -0.58687775273852
C        11.69810380668459    4.66623873996097    1.05122987168862
H        10.83733680191556    5.09514560839867    1.53322083919283
C        15.09810603454524    2.91128492397321   -0.89802140177104
H        15.00338940696332    2.97565545468542   -1.97957132544739
H        15.21879680348546    1.86815355856586   -0.61548246745122
H        16.00206773903428    3.44800362676603   -0.60787229041561
N         7.18565883516224    6.46457898036136    3.81105657267520
N         8.48819599725160    6.52565837452862    3.52324944581032
H         9.10759214152664    5.74414039724115    3.72733179989870
N         1.07698521408842    2.99058442612370    7.62710525546535
H         0.64551613390209    2.09919429686421    7.42359972171914
O         5.16229414322766    3.34406549351965    6.05041791344089
O         4.57920044332355    4.43980396586506    4.22701446837835
O         2.50153444524715    4.55413185919168    6.78432464819610
C         5.19760396882335    7.89292226371199    3.55996068558682
H         5.03587279877147    8.55209864154251    4.41358386847668
H         4.66348655672357    6.95941014240715    3.72641784141652
H         4.80643405332400    8.38450516447362    2.67161051917159
C         6.64727546475093    7.60504425606808    3.39538005653312
C         7.64209858701147    8.41040991077952    2.82288042515241
H         7.51988404038244    9.38512570267327    2.39593169132399
C         8.81307730456841    7.68029710279281    2.92178616993818
C        10.20226396200134    7.98592376182807    2.49463445033329
H        10.88434388605102    7.24798179673740    2.90840238815671
H        10.49697806128240    8.97696661370455    2.83401175410449
H        10.28136267522834    7.96613751021173    1.40810847725508
C         4.42356436440021    3.52846310637165    5.06434366777870
C         3.28611421433523    2.56392120530825    4.84010957435084
H         3.43020539805201    1.87926262284829    4.01603399805697
C         2.18929683184993    2.52031089921409    5.58901854329040
H         1.41599358868878    1.78427915808526    5.40504040370227
C         1.96571028177516    3.46153047263223    6.70666054862266
C         0.66050406743868    3.57253125031791    8.82908908956371
C        -0.43409713168618    3.00377181533252    9.47702743367719
H        -0.92364633038549    2.14450544724687    9.03727517609444
C        -0.90509274529370    3.51777664042487   10.67407471272576
C        -0.26298277628470    4.62020754431688   11.22686460291147
H        -0.61941500695431    5.03238398656642   12.15940066009978
C         0.83033087429547    5.18141763292113   10.59331752692726
H         1.33042407438227    6.02921650789652   11.03768824967850
C         1.30178305534497    4.66645739065007    9.39955111195726
H         2.16239482412329    5.09558900227028    8.91747554844079
C        -2.09798944722193    2.91105325968376   11.34881948844111
H        -2.00283107384847    2.97456299090224   12.43039273506138
H        -2.21910695151795    1.86817437610331   11.06551232493564
H        -3.00188778983693    3.44829099237399   11.05943983567013

