100
CSD_code = ECUCAJ | q = 0 | S = 0 | Stoichiometry = C47H47BrNiOP2Si | MND = 4
Ni        3.27015748752572    4.62504151032791    3.64383716572328
Br        4.47198333196024    5.73670047531594    2.03629306495923
P         4.40771118664311    2.79536317308492    3.32446388921378
P         2.14735161842918    6.38270151658199    4.25000260077194
Si       -1.56273884956674    1.49520663541341    8.07881005495105
O        -0.26673194264475    1.18902699788338    7.12912672239087
C         2.15408667425934    3.62519755694332    4.81844667286492
C         2.42905539859437    3.45906650922426    6.17370920297513
C         1.60319077510613    2.65473230817707    6.94546891783999
H         1.81206578768118    2.50845373260089    7.99474310138184
C         0.50875115688059    2.02237047696793    6.37921475888557
C         0.21656994402986    2.21703255565064    5.03913469881782
H        -0.65155856112243    1.73632589361566    4.61154265733568
C         1.03849225293046    3.01148276706184    4.25154328837015
C         3.61005722347671    4.13210347803587    6.81142790194422
H         4.40355720805418    3.40822274228019    7.00015052625887
H         3.33041568024605    4.58916680633145    7.75910743482446
H         3.99849040124323    4.91402361117431    6.15170663525003
C         0.71856214370693    3.21060820577627    2.79388809294024
H        -0.23164395384534    3.73203633235424    2.67118111819414
H         0.64931365438581    2.25565312393483    2.27293206905935
H         1.50167811452895    3.81121866253660    2.31290644813422
C        -2.04133315447021   -0.23590916775826    8.68886699126798
H        -2.29454335299238   -0.89403428371264    7.86417826391531
H        -2.90223670527890   -0.18336688178950    9.34630386504087
H        -1.23081620683477   -0.69964121965186    9.24136345592670
C        -1.09427212148113    2.64724074511973    9.52713726631919
H        -0.44422889282154    2.13925298831433   10.23438434861556
H        -1.96654629814694    2.98811666795696   10.07581866329849
H        -0.56241253699333    3.52549709279184    9.17064834398026
C        -2.96766001723126    2.29381988307723    7.05970127116098
H        -2.60110223016813    3.13960846661450    6.48315586341818
H        -3.77827911398622    2.64884627567856    7.68802226765310
H        -3.39086467979448    1.58406030445305    6.35407526457483
C         6.20522864053152    3.11706677645227    3.29617480510621
C         6.68263100525334    4.07795380446277    4.18295636198823
H         5.97902317248720    4.59683942713585    4.82517469902728
C         8.02845190849723    4.38010457980249    4.23695430907668
H         8.38887691067334    5.12979244970910    4.92627034906783
C         8.91191834554416    3.72555540764769    3.39387055011250
H         9.96481299748678    3.96362118863616    3.42529597660752
C         8.44224479328408    2.77691544093306    2.50205623401526
H         9.12916368429991    2.27554700610979    1.83595455581558
C         7.09341818382449    2.46982674569066    2.44877173511063
H         6.73559331213155    1.73837087959021    1.73938618725746
C         4.13663478591603    1.85948557726663    1.78243943838195
C         3.59761209734642    2.49169739172096    0.66864047160721
H         3.33330566054697    3.53816721245778    0.71677604032139
C         3.41608589759539    1.79477666934111   -0.51284816384641
H         2.99769294365542    2.29751332690056   -1.37202240715017
C         3.77301053729265    0.46017650012442   -0.59279718774541
H         3.63174966710526   -0.08590987686225   -1.51388906951599
C         4.31695921352846   -0.17558118800701    0.51237156939703
H         4.60280569235791   -1.21594415142898    0.45277877986271
C         4.49968967921132    0.51681876207425    1.69442272739787
H         4.92314400931417    0.01379580073185    2.55296486451700
C         4.29692386757571    1.45769180447796    4.56220611523395
C         3.17184156159021    0.63688121326782    4.55355715777262
H         2.44091312718634    0.74602525863340    3.76509082993480
C         2.98791764087075   -0.31071762137349    5.54011936903400
H         2.10638309357566   -0.93388931097489    5.52957722688123
C         3.92858477362983   -0.45288741753128    6.54776367042634
H         3.78250983679866   -1.18857797502403    7.32461631328630
C         5.05683461839289    0.34827283677452    6.55510527453341
H         5.79758396360318    0.23399368730591    7.33380146223975
C         5.23997523171040    1.30426049504450    5.57064620724938
H         6.12405879579690    1.92752531417653    5.58338518332780
C         3.15579680988881    7.90232045208301    4.39169024286386
C         2.62666199793171    9.17084676806996    4.19057735434550
H         1.59284453820869    9.28909858758705    3.90080452002474
C         3.43028108998862   10.28585032274658    4.34861577330166
H         3.01558888867513   11.26977171813449    4.18412847696028
C         4.76021768970928   10.14610918788683    4.70834913918222
H         5.38314384361398   11.02061670980509    4.82436898854063
C         5.29321288139465    8.88369568925915    4.90821746849838
H         6.33242398250423    8.76825146373401    5.17828356465604
C         4.49329267531085    7.76899182969967    4.74868181086250
H         4.91455605547380    6.77922270992777    4.88024107446223
C         0.81271372479566    6.91335749454310    3.12174974591454
C        -0.30252362934221    7.61308145027720    3.57652688370047
H        -0.41562482258511    7.83287102563089    4.62898284362240
C        -1.27399723343479    8.02786891102602    2.68410778071092
H        -2.13507557472248    8.57036135210227    3.04743681354448
C        -1.14505414978482    7.75483261059436    1.33187214546195
H        -1.90791000054608    8.08079398102402    0.64020916372791
C        -0.03436912003615    7.06851860040888    0.87236343327344
H         0.07759750131181    6.85865891407479   -0.18089737894025
C         0.93908172728826    6.65117058974514    1.76182525902168
H         1.81156953616091    6.13157773967839    1.39256249325245
C         1.28824127900339    6.40032088332016    5.86112307840598
C         0.09760468111729    5.69133866131403    6.00211116093764
H        -0.32348022392204    5.18232347002608    5.14657812288918
C        -0.54808481228335    5.64336663987535    7.22137942016756
H        -1.47609426313120    5.09993864134499    7.31865721333236
C        -0.00519294640582    6.28998203769917    8.32078364284230
H        -0.50966030466194    6.25191829503265    9.27523039084661
C         1.18412580895598    6.98548271935747    8.19196911224378
H         1.61214365749472    7.48961326936753    9.04651322248533
C         1.83034714968491    7.03995888720550    6.96900181721934
H         2.75832049168082    7.58719443008766    6.87669069718591

