65
CSD_code = ECUCIR | q = 0 | S = 0 | Stoichiometry = C25H34ClN3OPd | MND = 4
Pd        5.10952207913596    4.23345753951687    4.26680400604955
Cl        5.08413777070948    2.89052373908437    2.48516165464634
C         5.70572031640918    4.65120567858787   10.14923421375705
H         6.13582087689865    3.78169461005996    9.66047502858347
H         5.61331018317170    4.42825784508117   11.20971235655499
H         6.39875605665770    5.48142002028995   10.03221088014167
C         4.33079855843577    5.02838724361911    9.57859836599695
C         4.45834626588022    5.44073640696441    8.13499786881360
N         4.92011576784125    4.67188621384732    7.11435895479663
N         4.94296359771354    5.36585061646177    5.96848027772807
N         3.45380875162703    3.06801004028111    5.33338715205715
C         2.40809250595597    2.50795249058792    4.73679137094088
C         1.98563835028181    3.14027282150225    3.44643435428087
H         2.26972490781770    4.20886107559263    3.46257766945033
H         2.56736345207148    2.65467785541967    2.64439389265108
O         0.60091108937707    2.97257878078236    3.24970257118307
C         0.07545161387501    3.36117410036594    2.04995249281327
C         0.79911680175829    3.94875411818132    1.01890259772672
H         1.85786155268441    4.13213999143223    1.11005746721745
C         0.15258464393902    4.29986210399458   -0.15530058359921
H         0.72375042119749    4.75244547951873   -0.95231724650417
C        -1.20227862222088    4.07729296040502   -0.31451552642305
H        -1.69524371723810    4.35327063015497   -1.23431090544802
C         3.79698698684438    6.21533955262510   10.39103634287348
H         3.71234602633056    5.93312071275989   11.43784750067404
H         2.81306292385007    6.51345889418454   10.03850957355635
H         4.47014525059154    7.06579174937391   10.32305424067778
C         4.18119603202013    6.67545378471382    7.58033613906758
H         3.80835817526842    7.53691993188154    8.09036490196117
C         4.48070364423333    6.58238916293044    6.21411109799447
C         6.99655069402429    4.80940736328207    3.71113665888447
H         7.58087625831837    3.89671872549471    3.54216034167657
H         7.47153897822230    5.39598923567463    4.50745279079972
H         6.97985945210408    5.38243623942368    2.77944061804483
C         1.78682488013721    1.37922964878006    5.26120416069456
H         0.93572284008184    0.95868590730691    4.75215749269508
C         2.28867006346785    0.82717445287270    6.42488362939569
H         1.83496268893051   -0.05279439352243    6.85510553338494
C         3.39347876695251    1.40975327952262    7.03293774375793
H         3.81642777729646    0.98246558249398    7.92931110484236
C         3.94993884383455    2.53738669108857    6.45195777576712
C         5.16495999778512    3.25090228232821    7.02296909984812
H         5.44369437680742    2.83863672412044    7.99073634587355
H         6.00407756419894    3.11340742688973    6.30635878112504
C        -1.29242717205400    3.13916969276433    1.89058360798060
H        -1.83784301462284    2.68397593137880    2.70289263381620
C        -1.92301482324026    3.49498662995894    0.71654407294517
H        -2.98203381084513    3.31504284049597    0.60380516667921
C         4.31189573326343    7.63052292192280    5.14422007076181
C         3.52641671760472    8.82419240816681    5.69570979626919
H         2.55918964662166    8.50844677286307    6.08034189822029
H         3.35851435320209    9.54903510989147    4.90274997069120
H         4.07823970024135    9.31662459828849    6.49266453261134
C         3.54554206537974    7.03128857215373    3.95452875629880
H         4.10295415778181    6.17436782662919    3.52387261878989
H         3.42343887842814    7.78213795374326    3.17699881157544
H         2.55638264189016    6.70098602516879    4.27260855668099
C         5.69252254252644    8.10284897063097    4.67448687251421
H         6.27651433844217    8.47390541080111    5.51418277847256
H         5.58466080112839    8.90351774143808    3.94681427360865
H         6.22583349554932    7.27797099873320    4.21038534735221
C         3.33717940444347    3.86885976349509    9.73479363843289
H         3.71655082562375    2.94271175370796    9.31728275876959
H         2.39866880594344    4.10773286853200    9.23882843550792
H         3.13315926741291    3.70218989330876   10.79004461500064

