79
CSD_code = ECUFUD | q = 0 | S = 0 | Stoichiometry = C24H46As2FeO6 | MND = 6
Fe        4.03429947170855   12.26863919871007    0.47676029500849
As        0.80921621567781   10.75455997193488    0.82115317303954
As        4.96493378985845   12.48962246013148    3.92712780473684
O         3.58712484273893   10.59226190438235    1.28471908930279
O         2.47518487893686   12.56609200810454   -0.57293350689219
O         5.76196255973600   12.06263389566967    1.24809461754769
O         3.13436367288504   13.18427308956333    1.89473753931107
O         4.92485706461444   11.40386303314474   -1.41661800580293
O         4.89415612079799   14.11563795719053   -0.50410761143088
C         2.42844364880289   10.14804222533710    1.53612479013686
C         1.32355453143482   12.08797154233364   -0.40515409934052
C         2.41300406240083    8.91470276101522    2.45677828180755
C         1.00160499766042    8.48895450787695    2.85103241869078
H         0.42848636884410    8.19004226541726    1.97200788859039
H         0.47454126801427    9.31133556689383    3.33716348055918
H         1.04769915698621    7.64799435282645    3.54038755958373
C         3.21841788353210    9.23062547197597    3.71851729341879
H         2.73259482470558   10.02346704409143    4.28818068484032
H         4.21820358076119    9.56868827390454    3.44975101662519
H         3.30388197106126    8.34819082453687    4.34988017601823
C         3.09333750058184    7.77862370483834    1.68395053805442
H         2.53532666248063    7.55968597523749    0.77324774832632
H         3.13923641263479    6.87546327574121    2.29013457483973
H         4.10632196982423    8.06904347860534    1.41221369856610
C         0.20383331881559   12.67787245955696   -1.28181089789635
C        -0.72311355169977   13.49264879831158   -0.37479023239911
H        -1.51333738621062   13.96091417445640   -0.96001066503386
H        -0.16207788759361   14.27284134080852    0.13714121737594
H        -1.17728684877094   12.84117030208484    0.37409695059027
C         0.79645682632015   13.58989116064925   -2.35842683670385
H         1.49576817942709   13.03505604602225   -2.98153057356583
H         1.32810820453301   14.42212335794849   -1.90171510278298
H         0.00665178821762   13.99106826129792   -2.99121886915025
C        -0.58983515812690   11.55684995987498   -1.95583485782901
H         0.07337688357630   10.91835828671059   -2.53813459949965
H        -1.34129696378645   11.97560566668812   -2.62368615376950
H        -1.09110044479079   10.94369430260407   -1.20523597361963
C         6.07464367269433   12.06549401713742    2.46719698780681
C         3.39238879851532   13.12182191053049    3.13244438428082
C         7.51379425003587   11.63296512646187    2.80114141017285
C         7.44301022689589   10.22077689967644    3.39088573260671
H         6.86393609544380   10.23441022300367    4.31599178222860
H         8.44295002163157    9.84700222186111    3.60700605678152
H         6.96232320123323    9.54083233140246    2.68935495661497
C         8.37073423150973   11.61688714615210    1.53299442978152
H         7.96837870202360   10.91118972381804    0.80925469893675
H         9.39176515075395   11.32268280111057    1.76980166009373
H         8.38853490045991   12.60506845055133    1.07633925642513
C         8.14371541021374   12.58463532632036    3.81941193402093
H         7.60410970246110   12.53865326829856    4.76665234238340
H         8.11163549362100   13.60998080889348    3.45276187987591
H         9.18317148308005   12.31237777512181    3.99636860152203
C         2.30765181916716   13.73793358915747    4.03406131947025
C         2.57416522002670   13.50915790962368    5.51918333229196
H         1.75345920738063   13.91280075535471    6.10911916507781
H         3.49960547356964   13.99929629408195    5.82548293911662
H         2.66721494614160   12.44324943039981    5.73253695980730
C         0.95246679020850   13.13262769532089    3.66286620584005
H         0.15125649476006   13.61703530737173    4.21786311833413
H         0.94026513196524   12.06590719467867    3.88896018572702
H         0.76594209802719   13.25582235553986    2.59695536196839
C         2.29553319967571   15.24321027387837    3.74260530799217
H         1.53122768829285   15.74284646066507    4.33549822038180
H         2.08828819105551   15.41598694041689    2.68828187402577
H         3.26528377328767   15.67852520815632    3.98520169366196
C         5.52112249559242   10.13345787933493   -1.26817665585791
H         5.92179783753157    9.77990624210389   -2.22498524926834
H         4.73581967208520    9.46687279727777   -0.92125489365585
H         6.31872752253638   10.16319670396504   -0.52157643575970
C         5.82762582059068   12.39865066379429   -1.85931193370022
H         6.17497990395327   12.16068016352051   -2.87541008904752
H         6.68656710854208   12.45334412848287   -1.17865970072652
C         4.12413784318512   15.28978610263799   -0.36457213501249
H         4.02293107094119   15.46259369728901    0.70372589513506
H         3.13062227743319   15.15746871131457   -0.80036339794872
H         4.62652205611257   16.14033374903023   -0.83926156798404
C         5.09825322856228   13.73591352813784   -1.85094203081361
H         5.69848428291468   14.49994579623724   -2.36642755491824
H         4.13145708927491   13.62236348541997   -2.35759889895106

