57
CSD_code = ECUFOX | q = 0 | S = 0 | Stoichiometry = C26H25AsFeO4 | MND = 8
As        5.05599226762809   12.57720612642782    0.09795993465261
Fe        2.90402989027254   11.97656351155996    0.67626452324994
O         5.84467108458420   12.08108724400166   -2.56336574284188
O         5.35302251642116    9.88734477398699    0.72279495028034
O         3.20378423969653    9.99032526882399   -1.39490221742074
O         1.31032650081211   13.11396269679689   -1.43039947732980
C         5.11647459820286   12.75295977631549   -1.85700722147825
C         5.93492931669076   10.81484040307745    0.18259007520614
C         4.19686435560519   13.76770940161030   -2.42489894597203
C         3.84595179512420   14.90547190167143   -1.70168812886590
H         4.27508404183418   15.05781475786045   -0.71437053809699
C         2.98012219937556   15.83399413695545   -2.24401285223758
H         2.71526637482263   16.71884686325457   -1.68381349059244
C         2.44326978750764   15.62657916455098   -3.50596030979177
H         1.75393047354279   16.34629169733456   -3.92231937448267
C         2.78903617239968   14.49873751089719   -4.23134629983911
H         2.37058263536707   14.33895724386339   -5.21407955015411
C         3.67087019163971   13.57657230572902   -3.69931670887588
H         3.95707040958947   12.69331031869569   -4.25117670906585
C         7.28201589293321   10.67527980136953   -0.39186871715162
C         8.10876986446213   11.78849481395771   -0.52872401504811
H         7.74796479948993   12.75869507115630   -0.18596213255352
C         9.36531765370625   11.65359093191351   -1.08434338898939
H        10.00727001477593   12.51584849005639   -1.18902600398960
C         9.79982877765567   10.40964821809741   -1.51825752069673
H        10.77877475507238   10.30812805636168   -1.96363858099637
C         8.98152781749512    9.29916901645440   -1.38750576077436
H         9.32242348246841    8.33356183105179   -1.73136743674330
C         7.72853702841454    9.42712676083732   -0.81989341146310
H         7.07327785783486    8.57518181415075   -0.71252904351854
C         3.54406614317994   11.80324564015993    2.76915433428564
C         2.61285957811545   10.77103388616568    2.48943470255349
C         1.39133453043014   11.38130746303171    2.07264239798488
C         1.55940528616336   12.80449093505646    2.14635721450498
C         2.89331727294401   13.06688199736007    2.54772813027575
C         4.88682259926071   11.63486218688854    3.39985550595655
H         4.80928460507076   11.77449106819845    4.47953022054787
H         5.59827870264593   12.36993261245123    3.01140700724783
H         5.27876706782013   10.63959826595235    3.20762183967188
C         2.85251534026347    9.31380176548662    2.71338948711465
H         2.07683258397822    8.71405214893153    2.24594373136950
H         2.86297803893971    9.09624742828323    3.78240205660156
H         3.81129847621163    9.02179418325414    2.29286778197064
C         0.09885390809478   10.67384241223866    1.81538986259160
H        -0.45409294857890   10.54779396784056    2.74816417989035
H         0.27467803470561    9.69053236278145    1.38658004010510
H        -0.52206873452304   11.23917254806849    1.12457352309187
C         0.47405225253265   13.81946167966042    1.97113585792325
H         0.87946813103474   14.77100839133314    1.63689249702917
H        -0.03962341377430   13.97828933178650    2.92084640890364
H        -0.25897696127186   13.48763429635693    1.24027707901535
C         3.49401145477888   14.39524136820755    2.87554589126801
H         3.53592069159742   14.53550369324411    3.95631450507937
H         2.90864720312565   15.20341707921564    2.44574928973933
H         4.51311230305404   14.45961338133235    2.48462435571951
C         3.12132074939128   10.73145082112276   -0.52469883354722
C         2.02865030938290   12.74089917672332   -0.61336497133497

