47
CSD_code = ECUGOB | q = 0 | S = 0 | Stoichiometry = C22H17Cl3IrN3O | MND = 6
Ir        5.51232742451325    5.37957723787815    4.38763051914069
Cl        7.80662022777889    5.17250977080119    3.82228935096814
Cl        5.37623074686556    7.48205636896952    3.44516317180239
Cl        3.22957644635730    5.41788376257357    5.02574561178579
O         7.12241381395119   -3.55170243597202    6.12852725548070
N         5.03051387787799    4.31732168216545    2.76526270950900
N         5.62418418506294    3.66153217698901    5.15704504321280
N         6.02437286002149    5.93681505239071    6.23767149943560
C         4.73367050643662    4.76231296902387    1.55219379283818
H         4.75534992652638    5.83742813055184    1.42444332138001
C         4.41451767890934    3.91196108707373    0.50702976918359
H         4.18007655981539    4.31847639869896   -0.46306243141196
C         4.40369018021188    2.54468184076680    0.73674160639470
H         4.15840644108511    1.85331496502672   -0.05478808463892
C         4.71311020021143    2.07744218839925    2.00207889185555
H         4.71105966220286    1.01995816168389    2.21133341456732
C         5.02638662361965    2.98234009408845    3.01043694106527
C         5.36971344246773    2.60108060322589    4.38279410642557
C         5.44979278420056    1.32577118782078    4.92358430541244
H         5.23118531253552    0.45736129133509    4.32400110058768
C         5.78870425852208    1.17288745480675    6.27090709128363
C         6.04219968659849    2.31224122545307    7.04013351679347
H         6.32117522826680    2.20620392860205    8.07555746105918
C         5.95494357603533    3.56449603462839    6.44945544682712
C         6.18535193013111    4.87363194417138    7.06582413066103
C         6.54243371867493    5.05897138560504    8.39692576202832
H         6.66894441092217    4.20512893621880    9.04265125941541
C         6.73302151690560    6.34165883385297    8.88034546671570
H         7.01005090737120    6.49990898980818    9.91129770531883
C         6.56157123099509    7.41420080384986    8.01860241086068
H         6.69886187770439    8.42915192568249    8.35378208392980
C         6.20720242866773    7.16448224912598    6.70348897234821
H         6.06228511309990    7.96717778855267    5.99120864719337
C         5.87315573763373   -0.16335861670165    6.87396982528125
C         6.46665844969145   -1.20746662948709    6.16533970776449
H         6.88337931039297   -1.00403205104804    5.19142294120319
C         6.55462469221860   -2.47421977493530    6.72776740458158
C         6.02899215170047   -2.69478122021854    8.00385998275839
H         6.10149660627897   -3.68545726061672    8.42265469138570
C         5.43715284376367   -1.66185769496231    8.69883197420247
H         5.03093910122637   -1.84331300968093    9.68218206130706
C         5.36133163003716   -0.39436548102377    8.14602869038471
H         4.87777556659668    0.40490219231422    8.68609336699402
C         7.67824029448743   -3.40147943085260    4.84401674099882
H         8.07220435314549   -4.38087710171897    4.57840025655731
H         8.49378128066214   -2.67144446715207    4.84082122880227
H         6.92092319761891   -3.10691348777495    4.11030927835391

