21
CSD_code = ECUGER | q = 0 | S = 0 | Stoichiometry = C6H7Cl2N3OSZn | MND = 4
Zn        3.75646258625103    0.88101268306872    7.76415519781173
Cl        2.71084429032528   -0.88405531032043    7.05714940210878
Cl        3.54899036224034    2.45826895260961    9.29102446190696
S         6.97122129117716    4.44732567294088    8.43142133024191
O         5.96832719113412    0.66794570782670    8.00420117050832
N         4.28207086797037    1.94908030770915    5.82588002043462
N         6.22105913557703    3.34257457658228    7.51980735693054
C         4.25612195902955    3.34773566006683    6.02744114956867
C         5.12997722877836    5.34271055461361    7.19073073848966
C         3.22113519750338    5.53570852563447    5.79704158254770
H         2.42725655480492    6.11645109343131    5.35340827438613
C         5.20705481418338    3.94156627176729    6.88450382969460
C         4.12323474530511    6.14215172884832    6.62552500497461
H         4.07453667121493    7.19064029903124    6.86592178225923
C         3.28149621400246    4.15958094631588    5.50376766951214
H         2.52417407202392    3.72848259719775    4.86520983573495
N         6.08729134925693    5.71459205537011    8.04267181020194
H         6.26477146719995    0.37917003082537    8.87220399481613
H         6.22911345890256    1.61544614986650    7.92116961937004
H         5.22358813132395    1.60377107735780    5.66177439971509
H         3.66907241179390    1.65964041925497    5.06859136878718

