47
CSD_code = ECUGUH | q = 0 | S = 0 | Stoichiometry = C22H17Cl3IrN3O | MND = 6
Ir        6.15218255336181    7.27574937492269   10.26808213201723
Cl        6.24677842558438    5.15885254845780   11.32679797168557
Cl        8.23357717453811    7.87222409412601   11.07294014909525
C         5.47444605518483    8.57947462372309   12.88908438623467
H         6.54523395558756    8.71476900310337   12.97690913123133
C         3.37610181089973    7.08778219722748   10.34673036517841
N         6.74630551172983    6.43454193590214    8.55578198998947
N         5.05611701924047    7.97312171629183   11.78672598461515
C         0.36518308331124    5.98130898671712    6.78755430915691
H         1.09437675079838    6.48779089270505    6.17279452585244
O         0.08073836237734    4.84081803012534   10.21979460902188
C         3.72852056555064    7.76374258466657   11.59804178099740
C         2.80308542276269    8.17703178657582   12.55001846942244
H         1.75228709837607    8.00060049132079   12.38703400137567
N         4.45143287026809    6.79313184163292    9.60840302005861
C         3.24253134892605    8.81021092995556   13.69940361716358
H         2.53560337957279    9.13693835487114   14.44658250313571
C         1.98888015139129    6.10289295121976    8.65152307724418
C         5.70141723427411    5.97474920050581    7.82155136723945
C         4.38079203219586    6.18187570488750    8.42146527775417
C        -1.50868135555873    4.72561621189680    8.38461407636628
H        -2.25192095765177    4.23031620379003    8.98864402523814
C         2.11291821018481    6.74873840904655    9.88391247317221
H         1.23189188195514    6.98192466596345   10.45624455118102
Cl        5.89135295529385    9.34666915872555    9.14348549050649
C         3.14122391853129    5.82281682401473    7.91148154345472
H         3.05838973626791    5.31373960860865    6.96501781110878
C         0.67248542109203    5.72576085549386    8.11886953813270
C         4.60282275628231    9.01578848177439   13.87239951112558
H         4.98799519879046    9.50512938202565   14.75193876733942
C         7.20621812664830    5.20935849881988    6.11922624848027
H         7.38626483708633    4.73115092383697    5.16864439334511
C         8.25962735150831    5.68509981134906    6.88503520139655
H         9.28059381946073    5.59057884457305    6.55327533047551
C        -0.28315635190194    5.08730347588199    8.93248702012934
C         7.98249276489766    6.29182967134577    8.09838014614901
H         8.76914747653055    6.68038869758019    8.73302710447770
C         5.91476955149983    5.35674897229594    6.59426448153330
H         5.07548846281920    4.99622576257647    6.02182658727551
C        -1.79433179876268    4.99964330422033    7.05812859884213
H        -2.75483019962464    4.71600698423801    6.65546921007703
C        -0.86132947714811    5.62959620456360    6.25521395290571
H        -1.08621751887444    5.84531822757911    5.22254470746604
C        -0.77225753583829    4.07192141641293   11.03484822473698
H        -0.96884416975776    3.08906120229887   10.59693448118385
H        -0.23872271207029    3.94572842290463   11.97548128483806
H        -1.72078119761791    4.58493252933275   11.22278657052744

