101
CSD_code = ECUGAK | q = 0 | S = 0 | Stoichiometry = C46H48AsClO2P2Ru | MND = 7
Ru        6.88921273255984    6.10751077344927    4.49810826316971
As        6.81439154190667    4.97988721476707    2.22861054981501
Cl        9.08368489471191    7.06249136012365    4.69803850577722
P         6.33967341480406    6.46262672167834    6.73521281299142
P         6.14914914053450    8.03553045261877    3.57524715716357
O         5.06120012765218    5.09059921923969    4.25829359145510
O         7.35976134530999    4.02441224493839    4.83522967154760
C         5.15217881090018    4.56685863156181    3.14771096470125
C         7.88799775800302    4.32968114069440    3.74397010353547
C         4.12107519475493    3.58474163070883    2.63251904954166
C         3.75962003168091    3.95161930507429    1.19371769043129
H         3.24153408324778    4.90782827556672    1.16213857679938
H         3.11493999608989    3.18881777004976    0.76348985073277
H         4.67088775402889    4.02723337842056    0.59039016693644
C         2.88389053270619    3.58663245983333    3.52790682249760
H         3.15224570249127    3.30114187323357    4.54231065215167
H         2.14387869252763    2.88486026164975    3.14936449386077
H         2.44278025286992    4.58087329924304    3.56052843608550
C         4.80073564425420    2.20948618567042    2.65738646461978
H         5.65537870975309    2.20711833255431    1.97515161501744
H         4.09906772300763    1.43894089118989    2.34559730915283
H         5.15201812735076    1.97377080512553    3.66120251299702
C         9.30067762464160    3.84115748866278    3.40982382957454
C         9.99178587411919    4.70940816792892    2.36186766598295
H        10.14701816678208    5.71417925654417    2.75255103142656
H         9.39103934414980    4.75671645720645    1.44295958321015
H        10.96262408870077    4.28457508698700    2.11648384836128
C         9.09504864089763    2.42599019971720    2.84936524656269
H         8.49993659486591    2.47116907292553    1.93058410002806
H         8.57929939752877    1.79947258894700    3.57567625787419
H        10.05781193392710    1.97360379524731    2.62152795848574
C        10.15227658195173    3.77121553770919    4.67838060748197
H        11.09322195747147    3.26770905520221    4.46531887251142
H         9.62571632867566    3.22260735690129    5.45745607225598
H        10.37114971836991    4.77518914511155    5.03508004112666
C         4.54792822918833    6.25674378534563    6.94524059995227
C         3.69947913654010    7.36130679961902    6.97810201534211
H         4.11994964649694    8.35864377342928    6.95790232326951
C         2.32765771202344    7.18440182733258    7.02930704361724
H         1.67730143203135    8.04713180430140    7.06218341849995
C         1.79041243048933    5.90754564617290    7.02720229377885
H         0.71954785350869    5.77043274308212    7.06882070302077
C         2.62777984546315    4.80563766399232    6.95919106173871
H         2.20640988625895    3.81024742182621    6.94437111259071
C         3.99883005674555    4.97711220073094    6.90781955819116
H         4.65650962768796    4.12013385578354    6.83582752865376
C         6.77047615764173    7.85257059603959    7.84465753476865
C         5.97536402125480    8.22052809098625    8.92460150230711
H         5.02325340052303    7.73831173114961    9.09382808155611
C         6.40404950635598    9.20467062351940    9.79585437414226
H         5.77491407745852    9.49295700091255   10.62604988672276
C         7.63753202970533    9.80871455566806    9.61755313760971
H         7.96789010382878   10.57466551234883   10.30415670718632
C         8.45001858486139    9.41527179509729    8.56844640884306
H         9.42351844194923    9.86459485824954    8.43694790067397
C         8.02000759584580    8.44170609503257    7.68570166231563
H         8.65670035367583    8.13229504155365    6.86921128739225
C         7.06837615375626    5.19150653712684    7.82335488833438
C         6.40144849081119    4.62667542265616    8.90488376191088
H         5.37329738380023    4.89017328480994    9.11208670652976
C         7.05686645036469    3.72006903303783    9.71806725781148
H         6.53251722736774    3.27395741065871   10.55141123761990
C         8.37896129322483    3.38632604653726    9.47234668598525
H         8.88207896133571    2.67339334031200   10.10955177147285
C         9.05596425948063    3.97416743277313    8.41686723256673
H        10.09177177404863    3.72891378486874    8.23127140491745
C         8.40428014196631    4.87791130859406    7.59882548049172
H         8.92799472848307    5.34952217182184    6.77775146533999
C         5.86044491388266    9.47112461284949    4.67041923381148
C         4.62980601989688   10.03799080254999    4.97884049980819
H         3.72297142069826    9.66024429792528    4.52789405703506
C         4.56464647721452   11.10577887622091    5.85877907942779
H         3.60412572116952   11.53887340272166    6.10053377949763
C         5.71891058434553   11.62219554202334    6.42187933093928
H         5.65945283543803   12.45383580232956    7.10849279633026
C         6.95049005043681   11.07738447680021    6.09552263805414
H         7.85379069679328   11.48855883328978    6.52026895220818
C         7.02091200810375   10.00420634496989    5.22964161674002
H         7.97590905257417    9.56642636605069    4.96663439901683
C         4.55013143392353    7.79240992710578    2.73393832504864
C         3.44907655054069    7.44285414859604    3.51206319119401
H         3.56967149705271    7.32937413361680    4.58133696679844
C         2.21738298806218    7.22373998942851    2.92363209261083
H         1.36534442097784    6.97197363612013    3.54001547892301
C         2.07934709389219    7.32570254547258    1.54815252509102
H         1.11684374476162    7.15741309245180    1.08728248783642
C         3.18311213273502    7.62256643455645    0.76445011181192
H         3.08394432348943    7.67568873418852   -0.30984727116570
C         4.41677961279198    7.84913524676659    1.35018442637670
H         5.27683455865108    8.07246067070317    0.73298724736823
C         7.11333225199045    8.88623315810997    2.27734001113199
C         6.72085909942759   10.16470836376640    1.88289304294935
H         5.86360793240990   10.63050793053102    2.35044713022542
C         7.42240966183506   10.83124030343262    0.89777461800886
H         7.11367157911441   11.82174193964348    0.59614292113981
C         8.52152108281036   10.23323013075806    0.29988364656649
H         9.07160251815956   10.76073373615833   -0.46549012503406
C         8.91272510915707    8.96329202798220    0.68621886791081
H         9.76925054985662    8.49446364991042    0.22558844419373
C         8.20926117261922    8.28992649318871    1.67025587680341
H         8.52733544789580    7.30098971789803    1.98054919039062

