44
CSD_code = ECUKET | q = 1 | S = 0 | Stoichiometry = C14H23ClN4PRu(1+) | MND = 9
Ru        6.11572343889430   11.82284542472267    6.54476280881418
Cl        5.07220939077754   11.91827832229201    4.45073285640215
P         6.60124074535698    9.74963030346562    5.65258155449663
N         5.85845814606530    7.40357879454215    4.46204797165093
C         6.88967113558058   12.31806569096723    8.61212238496639
H         6.80180968240440   11.79556047446006    9.55812827708075
N         7.83853084735683    7.31688040157755    5.85219457370653
N         7.92593604463857    8.39193840284972    3.68523848299825
N         4.12474296364923   11.29802528669101    7.21458963045792
H         3.55039933166851   10.99976665230580    6.41767685945330
H         4.11073720832732   10.54605622933452    7.90953956475655
C         7.67235870636872    9.73926773075906    4.13064558323402
H         7.16227495650710   10.30230150421173    3.34039262349379
H         8.62506029221944   10.23431236341932    4.35801079943269
C         5.86098755972907   13.20273158821038    8.18412327587650
C         7.57183008777819    8.49533049914075    6.63852727562715
H         8.52248922858442    8.93831817595417    6.95551961760185
H         7.00428870857864    8.21386108758189    7.53272783810341
C         8.02990623614268   12.14905643321139    7.81462703667601
H         8.82721821840163   11.49398437583770    8.14677176604727
C         8.64385889162786    7.60889639800501    4.67586494514016
H         9.54549949662644    8.14657639796168    4.97999374474509
H         8.93443607857932    6.65973413186035    4.21891389141355
C         6.06497748040317   14.01903352014626    7.04835844890164
H         5.34062751675038   14.78143594624997    6.78827188920938
C         6.61915509760976    6.64107593256617    5.43716044214690
H         5.99606431135782    6.44957171589865    6.31442192985134
H         6.89703170835710    5.68614870505200    4.98444794299264
C         5.27498233003374    8.59409732950652    5.02977149486978
H         4.61740240094153    8.30952022915492    5.86137134461117
H         4.68338894738457    9.11506678805212    4.26776274816393
C         6.70319172140734    7.69794431359358    3.31484801134722
H         6.97616361034107    6.75256065045996    2.83973055095981
H         6.14358152484833    8.30809970260455    2.60268411039111
C         7.21852603296495   13.84875656006957    6.26009627533535
H         7.37464240967606   14.47795469696942    5.39106275603938
C         4.49426113644696   13.15146269215308    8.82180363550394
H         4.13807950429690   14.14975739566756    9.08111599114614
H         4.52137635329241   12.54956262282777    9.73303611577088
C         8.18341441205687   12.88684157855593    6.61110567278357
H         9.09419681105345   12.79221500081051    6.03050316728636
C         3.53266671393875   12.52224535309076    7.79593642576678
H         2.57028706946733   12.30071606345405    8.26975401756081
H         3.35871551187609   13.21973653362891    6.97102366725423

