68
CSD_code = ECUKUI | q = 1 | S = 0 | Stoichiometry = C23H40ClNP2Ta(1+) | MND = 9
Ta       -8.40856419870249    5.34576264441088    8.98911362204350
Cl       -8.16244283077194    3.62553825165985    7.55275069054629
P        -9.94873826999652    3.66042752236770   10.45250129407855
P        -6.72102250533013    6.77008240827781    7.49782242316379
N        -9.76722648972708    6.52135184591458    9.09476925097501
C        -5.13437521268575    4.87142203519976   10.36197249150098
H        -4.29395743416471    4.25383912488559   10.09660307226675
C        -6.35814671232982    4.44044281368074   10.77534508202369
H        -6.65104723709223    3.41681296443906   10.95624417870229
C        -7.21629312502635    5.60034760733549   10.99688766365933
H        -7.88032383078745    5.61320713187799   11.85628928488163
C        -6.34940447496090    6.74544427831767   10.77905956993096
H        -6.64401441967863    7.76400806912029   10.96178341948180
C        -5.12634519519416    6.30103008918659   10.36874003409965
H        -4.26561340728147    6.90652490698557   10.14063132986050
C       -10.91184394281312    7.21416614174574    9.10574584980280
C       -11.81974805530829    7.17191214439162    8.01317990529784
C       -13.01419278462065    7.86526522150890    8.10348560825451
H       -13.70697013354581    7.83980456465614    7.27704318795564
C       -13.33638557134549    8.60020093300666    9.23024438591927
H       -14.27280893994181    9.13380119382373    9.27719626859142
C       -12.44800413992632    8.66475398425427   10.29141357418478
H       -12.70281013398527    9.25700107125349   11.15509790805749
C       -11.24529167398328    7.98740121121105   10.25305403739987
C       -11.46876172033379    6.43556497455196    6.74284113554893
H       -10.52673376344944    5.89141515711234    6.90726804470924
C       -11.26536766451718    7.44931273460579    5.61050289086037
H       -10.87290792862033    6.95718556073600    4.72383528550582
H       -10.57855041184394    8.23602234141754    5.91584783002233
H       -12.21018580075127    7.91770066418725    5.34831285769294
C       -12.54482652294223    5.42287033034526    6.34376358449627
H       -12.20726790319205    4.84332739050663    5.48791300374581
H       -13.46726234387313    5.92456912127753    6.06569263793585
H       -12.76195376627948    4.74043156204297    7.16070551993984
C       -10.23186138839676    8.08448943206613   11.36548234476126
H        -9.67081728331449    7.14222126177668   11.37813102702989
C        -9.24529393788661    9.20546508900155   11.01847965187966
H        -8.50204022824041    9.30983851291496   11.80473784711241
H        -9.77061867070877   10.15152656133333   10.91256408244790
H        -8.74495619687688    8.97286507619417   10.07981194054075
C       -10.84684521318342    8.31799790464716   12.74349248136854
H       -10.08837259980743    8.18332622773789   13.51083242138198
H       -11.65820659217042    7.61903124043858   12.93367545439494
H       -11.23264286528802    9.32944959293735   12.83490769846843
C        -6.23754126430076    8.50785865329572    7.80174276907056
H        -7.13370061436174    9.10264784067091    7.96927846926120
H        -5.70569853061755    8.89037721280350    6.93093307253676
H        -5.59872987033456    8.57571602421723    8.67777639487238
C        -7.56708145179223    6.91279379626848    5.87948228840186
H        -8.47623985783660    7.49903918662866    6.00082888859733
H        -7.83668798109737    5.92172540027728    5.51560531593893
H        -6.91549595963179    7.39788126308292    5.15246112875185
C        -5.16375747387933    5.94631154669443    7.00539410964820
H        -4.47618895575878    5.89513813381506    7.84542031238616
H        -4.70291502792938    6.50337407842733    6.18969069449175
H        -5.38516551486099    4.93454471696065    6.66788912073073
C       -10.50618942892354    4.09694765113613   12.14087824515157
H        -9.66634006009025    4.07973693626437   12.83258417094144
H       -11.25672755302891    3.38019367117103   12.47237572195890
H       -10.93728270009664    5.09578370022883   12.12562804556532
C       -11.53305377792758    3.51818340835963    9.55397189299384
H       -11.34250387895388    3.14969128676572    8.54690362034497
H       -11.98391300214772    4.50782585154683    9.49099448580921
H       -12.20671797570743    2.83614868421286   10.07235698305871
C        -9.43567745168450    1.91022533802608   10.62728320420906
H        -8.60379755450275    1.82939763096881   11.32427287831011
H        -9.12518007703615    1.52417011163933    9.65796452216359
H       -10.27147051664557    1.31832898114944   10.99891179233747

