167
CSD_code = ECUQEY | q = 1 | S = 0 | Stoichiometry = C68H78CoN6O14(1+) | MND = 6
Co        8.12615962957378    9.76389810961154    4.30350080276670
O        10.55072536158691    8.73933805781719    8.51297243226209
O        10.70871501630232    6.80029734401927    9.62225378198364
O         6.32964806927346    5.85415644874425    3.72836931918077
O         6.20550058438237    3.77005150413545    4.54377188598849
O        11.04411663191517   12.73301489174352    3.06707879292086
O        11.33020422823516   14.70868596846399    2.04735837112145
O         4.06032326718249   12.18335584307827    2.81154569477720
O         3.89616481277512   14.14099879547793    1.73629430298059
O        11.76791729634823    8.92420250091581    3.74815941711096
O        11.73948230294425    7.77856442551978    5.67638862378705
O         9.68749362188501   15.05654256503206    9.26820487033888
H         9.86204077916029   14.91665728469878   10.20693426717617
O         6.85593882884460    8.59308084716214    0.93279357107341
O         5.89242996122754   10.60254232419718    0.68009311395249
O         1.56234488510620    8.67910618639360    7.58787946577624
H         0.82302367621216    9.29921899312566    7.58716250630717
N         7.19254737935071   10.54606383964855    5.84165727192183
N         8.41447565078928    8.12010787768895    5.31876305836713
N         9.04667515169781    8.99003424645526    2.78225601481622
N         7.83683789812042   11.41172151912997    3.29470148463490
N         9.82371626128916   10.62082836199084    4.90543714929694
H        10.29990284047558   10.98584814693744    4.06808214094919
H         9.54609871163759   11.45589794501376    5.43275082086267
N         6.42187712995162    8.91194917240242    3.71158017445597
H         6.64687447926231    7.95830273458871    3.39384502933344
H         5.86257914822849    8.77868171739837    4.56124134034786
C         6.44917864027026   11.69211497410583    5.85380917185932
C         5.92915353986743   11.92360626629028    7.16705339999132
H         5.34371892412593   12.77012620602638    7.45767963875574
C         6.36450798571894   10.90900780922049    7.94712424657785
H         6.14359426376412   10.73303191439846    8.97865425547615
C         7.15319322263134   10.05241779523845    7.11474766689402
C         7.70672795520723    8.85277917704872    7.55311444217190
C         8.23547213273103    7.92529114695441    6.65819073148988
C         8.51345866673334    6.56012772470575    6.99189613937017
H         8.45459400087036    6.12815727074151    7.97003233417277
C         8.80961486697312    5.92575859372862    5.83383934346705
H         9.06290498450015    4.89268250634707    5.70181896690825
C         8.75028267354871    6.90819102400123    4.79495616779867
C         9.04765103629979    6.64254880312434    3.45915696075646
C         9.28734381538450    7.67130694812213    2.55869114244310
C         9.97644951546725    7.49776888513125    1.31332913496430
H        10.29611668886477    6.55669389456845    0.91463821890011
C        10.18694403544663    8.73354054554821    0.81178292070608
H        10.66111593130056    9.00357937934043   -0.10965414840428
C         9.57857516972996    9.65698434802955    1.72452227644843
C         9.43578352874542   11.01424440155412    1.47057515884985
C         8.50749673406433   11.78471882516743    2.16892196678271
C         8.08114753006726   13.08627608518122    1.75416465917030
H         8.43794897039514   13.61436401510174    0.89242048748644
C         7.13888329625369   13.49092541028082    2.63709389166374
H         6.61052174252085   14.42239258354353    2.63875793933923
C         7.01405119305152   12.45261842465463    3.61625221664049
C         6.27962226252709   12.57782648464421    4.79345231799578
C         7.53196060740721    8.45610599325151    8.98193037759111
H         6.60393256097085    7.90992758746697    9.13739690786652
C         8.01355952057359    9.23906942536820   10.16615734513685
C         8.78270643723786   10.52718434291988   10.00421346776052
H         8.11216289586324   11.38242586781806   10.04944836551120
H         9.31447154066564   10.55388779986473    9.05962703160365
H         9.50715550238933   10.62023481533723   10.81167615241347
C         7.15895069569261    9.21147950899402   11.41551271692788
H         6.42708516686833   10.01736755706143   11.39312061728147
H         7.78063477815549    9.34744772183857   12.29826420341504
H         6.62612938390537    8.26892254594263   11.51313995443265
C         8.69726618507789    7.92777435727812    9.80864303458555
H         8.51007820658263    7.07528639989247   10.45017975933865
C        10.05888193154667    7.90575038968431    9.23749353307647
C        12.03383480471017    6.64207860015940    9.13190307455411
H        12.27477435125889    5.58680658043365    9.23102787091292
H        12.72550688107834    7.24197424837033    9.72666949947880
H        12.08479529537404    6.96247429758626    8.08933837694102
C         9.21221664224636    5.22554516840259    3.02956584839113
H        10.19635278515454    4.81549387827436    3.24169771125437
C         8.49676320934948    4.62763203017283    1.85702774047025
C         7.55353532138272    5.42769251115001    0.99480607958152
H         8.08211413230373    5.85290944398666    0.14547092788876
H         7.09789277412926    6.24471391948053    1.54157755261148
H         6.76728873113394    4.77729079693222    0.61412844291023
C         9.21739063818344    3.54093440662109    1.08865098227800
H         9.81274708880634    3.97898838522046    0.28947967947661
H         8.49854342294768    2.86061545767927    0.63659042522957
H         9.87754161865240    2.96491120430536    1.73268706964150
C         8.06493336520945    4.25090611880760    3.27013921186809
H         8.30363459182881    3.25098264890869    3.61048357427341
C         6.79789948769036    4.73979617373841    3.84157813330890
C         4.97300886657960    4.08403231068166    5.17648264083892
H         4.60039111715689    3.15144868833522    5.59115547029459
H         4.26226046382566    4.49027645940298    4.45416601309349
H         5.13398563635461    4.81481452024774    5.97210477864418
C        10.20530294369251   11.64730548799517    0.36304626105193
H         9.66040861248101   11.69582764860281   -0.57633002027757
C        11.69729288280205   11.57881121135945    0.24721795352547
C        12.55070749349199   10.84058103971255    1.24733618691297
H        12.08248303755440   10.79124320717051    2.22330754210010
H        13.51366403619645   11.34014501588712    1.34387966376116
H        12.73017964579118    9.82124200764377    0.91511144016878
C        12.28278900479202   11.56584540867874   -1.14833421117653
H        11.66071428162855   12.11731033749225   -1.84925694477280
H        12.37829108033752   10.54184538094743   -1.50515116182053
H        13.27480599763993   12.01287621324487   -1.14369068790635
C        11.03710320854324   12.88835844970457    0.66560240648391
H        11.03740603699837   13.69491963469013   -0.05696373656947
C        11.13424428365647   13.38728396334498    2.04842455694230
C        11.43868807659982   15.35363559983231    3.30840123543604
H        11.73383512330951   16.37822320740368    3.09923817541552
H        12.18904376306424   14.86048985084937    3.92946128342056
H        10.47638743177191   15.33522954913432    3.82471766933553
C         5.46125119466108   13.80897869502384    5.00341472738964
H         6.06010815089998   14.62857943692732    5.39494920274897
C         4.01510246845791   13.83471331371414    5.39763346606394
C         3.22283103012154   12.56438515502041    5.58596935921463
H         3.22440015220105   12.26295642696062    6.63105918810214
H         3.62884392757062   11.75374888072727    4.99127813719937
H         2.19087663502034   12.73285409700560    5.28240925334896
C         3.55871176301552   14.95825278109088    6.30396095490339
H         3.66682760511275   14.67150075425311    7.34878426356769
H         2.50893457782242   15.18183000687045    6.12438401437576
H         4.13574339726018   15.86434656619189    6.13706887025128
C         4.41326680716602   14.24788999765086    3.98865110661454
H         4.36370304006759   15.30189973848089    3.74383901085611
C         4.10856848279561   13.39135210812945    2.82489486674098
C         3.60534249733705   13.44186448282906    0.53298070399634
H         3.81349076443128   14.13101149756933   -0.28150698329533
H         2.55358393823184   13.14917011419520    0.51681549756242
H         4.22857743251764   12.54797277056736    0.46290853638063
C        10.85227815822635    9.96169926243104    5.71610696654715
H        10.42443202526475    9.55375644195069    6.63409791584171
C        11.49239338951186    8.84048412982454    4.91607765140344
C        12.37045265049959    6.66043300817872    5.05982106596462
H        11.91787729109750    5.76575598463253    5.48294311367120
H        13.43908073952807    6.67932772173854    5.28015339523945
H        12.21917479027149    6.69943743954338    3.97974185189394
C        11.95866772405510   10.98145545343750    6.07939486368385
H        12.75164054834824   10.45829681080117    6.61363830084839
H        12.36474137989468   11.39399685195505    5.15280906172405
C        11.39611287139157   12.07714239037775    6.93963813132966
C        10.73810483640568   13.16106466867326    6.36313283644597
H        10.70060855885409   13.25376636775989    5.28824650573960
C        10.16943429013477   14.14541689467787    7.14656647567024
H         9.65883835054151   14.98730869470937    6.70663398964461
C        10.26215508839798   14.07145703067303    8.53317773125895
C        10.93549736455821   13.00326522351975    9.11456358121980
H        11.02543427349864   12.94998078598628   10.19089476386722
C        11.48602801875620   12.01261919212189    8.32282234637487
H        11.98929798045310   11.17768305076358    8.78493789251849
C         5.50645176714792    9.47883247130686    2.71637823338576
H         5.21471055680452   10.49524977610807    2.98828113819818
C         6.17820375174962    9.49312995974346    1.35416376642561
C         6.43111282634340   10.72990893980851   -0.63219439157124
H         5.68154768197024   10.42587464862065   -1.36480407463932
H         7.31555634424396   10.09845578961667   -0.73213577905176
H         6.68498114180455   11.77885077533452   -0.77097005825076
C         4.23945659723233    8.59554842568302    2.61225701298431
H         3.60659703627895    8.98869205045650    1.81668560942273
H         4.54779961666605    7.57984357521187    2.35344539178861
C         3.49028946706959    8.60096285865527    3.91437314694609
C         3.86719767727333    7.74906650262797    4.94997040087577
H         4.65151900689231    7.02509032690587    4.78819248377546
C         3.22185501199381    7.78523989215735    6.16994180989846
H         3.50856762243536    7.12845939749774    6.97584217939348
C         2.16796316456293    8.67095365796667    6.37378270574850
C         1.77201045405692    9.50825986250540    5.33717704314393
H         0.94194536330269   10.18560730645959    5.48429735047286
C         2.43607990665868    9.47828900328175    4.12498766440453
H         2.13354032163539   10.14634608357702    3.33368621365014

