24
CSD_code = ECUQAV | q = 0 | S = 0 | Stoichiometry = C7H9N3O4Zn | MND = 5
Zn        7.49965830201111    6.17943165638984    1.80364321476065
O         5.65100169672754    5.43214204305581    1.80327362199143
N         7.92718399195657    4.29289667097379    1.80629804790155
N         7.36088350150558    7.40603288084177    3.52034231669609
H         6.76702027765163    8.22361127764148    3.43296848994621
H         8.30542663023658    7.71259101925444    3.73479965273549
H         7.01722361528866    6.86626832606851    4.30893742699853
C         6.92064401716737    3.43763885217544    1.80742000756770
C         5.55441197652122    4.15974492742671    1.80489242882232
C         9.19641835290294    3.92764083007233    1.80756000318549
O         4.53645665719074    3.49906554979690    1.80695786906225
C        10.14469489854974    5.14733267698125    1.80705236037257
O        11.34503628597391    4.96525619546906    1.80716418272515
C         7.17010508029024    2.07281150889213    1.81024932245220
H         6.34569306254206    1.37787245899057    1.81107200501398
O         9.53143760838212    6.26516020482652    1.80213783957585
C         8.49552460376937    1.65247458548690    1.81158811220942
H         8.72295911846467    0.59606627669586    1.81374992959175
C         9.53039418671071    2.58095226760652    1.81013861698624
H        10.56775340889551    2.28678519224597    1.81141407334188
N         7.35864726002242    7.41479465426425    0.09382360282937
H         6.76539385903767    8.23220597211523    0.18749779834055
H         8.30302414868340    7.72204860006677   -0.12073534653555
H         7.01280745951847    6.87977537266157   -0.69714557657121

