120
CSD_code = ECURIF | q = 0 | S = 0 | Stoichiometry = C56H46N8O5S4Zn | MND = 5
Zn        9.05549101934519    2.65362194649573    5.28444022686457
S         6.04194192897302    8.19453667989615    3.93840170440208
S         6.79689591519724    6.37019778857805    4.41512831081022
S        12.21652847875064    5.82943411307638    5.56009491744621
S        13.27932338459137    6.43078993450180    3.94192953194048
O         3.45908111086199    5.71120471367346    0.48490838475634
O         4.83347403000782    6.41507472324648    9.03350581390117
O        15.86565542718705    4.96751279498824    8.52407952184569
O        11.86865238113060    7.66590863670414    0.45148385559810
O         9.10001315773845    4.84246278906994    5.93839092993719
N         8.46572716015083    2.93211969079895    3.34910846467156
N         7.12280553687279    2.42357096988017    5.78808281747587
N         9.63802007699989    2.20266519304829    7.15741684373162
N        11.00302383174674    2.64966358473399    4.69618111890777
N         4.66318932316657    4.67315855876218    2.12842724899400
N         6.47182986485075    4.85590142260741    8.71871249773480
N        14.21745202829559    3.91573032485669    7.34815937252102
N        11.30486249993598    5.73924717623930    1.53845295778286
C         6.04955278546197    2.58630763323711    3.58901191428207
C         7.44490177496212    2.35162063525525    8.22201799228134
C        12.06214891629289    2.06121249483904    6.82614543393803
C        10.68399684663687    3.15860874697125    2.32117178055000
C         9.28961376672175    3.14282465869296    2.29054799798588
C         8.52129436391436    3.24613068639480    1.07967863657826
C         7.22825318045620    3.04517549352782    1.42333290236199
C         7.20298630122077    2.85106738675606    2.84883193402787
C         6.03442956345659    2.41194534343649    4.97537699627597
C         4.83791812669493    2.30703965909991    5.76543002148253
C         5.22776089906565    2.28977485116734    7.06294777112918
C         6.66332974114133    2.35283824113397    7.06263156642468
C         8.83149386214619    2.23095556721090    8.24888384294577
C         9.62031023674521    2.10708650619392    9.44466373658505
C        10.90660491950096    1.96877097804147    9.04662010168289
C        10.90601248264493    2.05231082397225    7.60992670965494
C        12.08604380844097    2.35202069670903    5.46230444442327
C        13.28131376077515    2.40952888868539    4.66200274874429
C        12.89781255609144    2.75779019730816    3.41180045978003
C        11.46598276678107    2.88551366880697    3.44170270399226
C         4.34131632825589    5.71320080376874    1.31158959514155
C         5.20119022713447    6.94757633246839    1.57698769031512
C         4.68699570543539    7.67929146175515    2.81668274612684
C         5.77910966169163    5.98376225150443    8.41772803005387
C         6.33279628249153    6.65785062459801    7.15862592618117
C         5.88273340226003    5.88260032526881    5.93146085288261
C        14.95807750129905    4.98949303101734    7.72312573828462
C        14.58137082042473    6.29184177920106    7.01795617615152
C        13.10081870711209    6.62301673861028    6.97148526749115
C        11.47065844791736    7.08048137143090    1.43248998351220
C        11.16610853517944    7.81423612838751    2.73910793945849
C        12.47703390586507    8.01672398761284    3.48704069817121
C         4.76617404900312    2.38208670062875    2.87539731459486
C         4.10608678883922    3.38629262153782    2.15258287401545
C         2.90760568157892    3.09589983121114    1.50790601215061
C         2.36869490779762    1.82472002977198    1.57021006256031
C         3.01158559725033    0.82816635848350    2.28397724542949
C         4.19788917401828    1.11308744283957    2.93272936748647
C         6.72001076388327    2.59990227344362    9.49132441161552
C         6.19294863671264    3.88606762225960    9.69388014743759
C         5.45691661190131    4.16236601680157   10.83710942774622
C         5.25536456511674    3.16892756496589   11.78018747024977
C         5.79158135914507    1.90597655020320   11.59748456121306
C         6.52057559346675    1.62397274279206   10.45393338606563
C        13.32484839730506    1.68152461923048    7.50555754040883
C        14.36394244756871    2.58499313593404    7.76688362856526
C        15.50648905200620    2.14341005922753    8.42698730632058
C        15.62031542815901    0.82446985042389    8.82461051080465
C        14.59664890368266   -0.07251965426154    8.57327134158172
C        13.45745081228480    0.36144511585080    7.92207279346963
C        11.37863108497342    3.41170816176621    1.02975282499024
C        11.65409035200632    4.72721603201552    0.63529782479118
C        12.26849132519842    4.97279945847586   -0.58567972839859
C        12.61372889229283    3.91251681215922   -1.40506130915554
C        12.35430380192920    2.60927783996384   -1.01697542224822
C        11.73599889687029    2.36296129624378    0.19707983543782
H         8.92980360787216    3.41945950482741    0.10324124416744
H         6.37380537568966    3.01264536551167    0.77598297058408
H         3.83976076271407    2.27542589382266    5.37454805700800
H         4.61282052243604    2.22052634961959    7.93901684534897
H         9.23017427045446    2.11386722115071   10.44363452653642
H        11.78096338553015    1.84977543406416    9.65653978924545
H        14.27237872388788    2.20067067537672    5.01604593647206
H        13.50958314640228    2.90308454209351    2.54282020654359
H         6.24047233810446    6.63943891745356    1.71544019790944
H         5.14787490881182    7.59664293214146    0.70358065701537
H         4.01176062949594    7.05529467741939    3.40401820927135
H         4.17087700265809    8.60258349065763    2.56364061115067
H         5.95986684716149    7.68238523526066    7.11502318768048
H         7.42337543369890    6.67549080056775    7.20989642335626
H         4.81867855656517    6.01444587128011    5.74071913384234
H         6.10080611209689    4.82040671702746    6.02213917050974
H        15.10859592446882    7.08852978466182    7.54722783972214
H        14.98665859266418    6.25428551686387    6.00051380481630
H        12.94738235887015    7.69703538159609    6.86776469171229
H        12.57077571421916    6.27292769450102    7.85622169011074
H        10.74943462980065    8.79345953835069    2.49781406924350
H        10.45221035174083    7.26370882149282    3.35581774543594
H        12.34003074610196    8.59938926811721    4.39741529494130
H        13.20775462135765    8.51065601031131    2.84725180194791
H         2.40712896029442    3.87067740910618    0.95256125703199
H         1.44057299000672    1.61688222494705    1.06020772888555
H         2.59341840742133   -0.16545018156387    2.33569308119324
H         4.71238234247770    0.34300868455551    3.48864633363340
H         5.04222227785686    5.14694413136163   10.97533681730926
H         4.67915407575415    3.38809160595585   12.66615728537135
H         5.63670612556055    1.13721184700169   12.33924352055822
H         6.92532677247892    0.63584151411373   10.29130986418940
H        16.29911684806847    2.84188699688785    8.63412121595817
H        16.51492446493909    0.50018214920096    9.33388356708650
H        14.68191401921483   -1.10252478210871    8.88427059204339
H        12.64875924269261   -0.32596304858525    7.72120078130864
H        12.47097945957716    5.98790126214525   -0.88340198597309
H        13.09092906217543    4.10969695983175   -2.35291176544939
H        12.62829504709993    1.78520065755832   -1.65796247114147
H        11.52141157339346    1.35137090440316    0.50890192425471
H         5.47889030315028    4.78028218833984    2.72162202951509
H         7.20595025424295    4.58129177733707    8.07596581397315
H        13.44470224749429    4.06655824990443    6.70989919167283
H        10.94242044209108    5.37224761909102    2.41092513928943
H         8.67471935305106    5.41966357576652    5.29019844480485
H        10.03032070515867    5.09229509444616    5.97028324460665

