59
CSD_code = ECURUP | q = 0 | S = 0 | Stoichiometry = C28H26Br2NPPd | MND = 4
Pd        7.94355545395518    1.48852877145707    4.50319535757393
Br        8.78322650825184   -0.37692066048528    3.23380511070757
Br        8.30770322517779    0.40398208088197    6.60091379264002
N         7.84844523816925    2.74895067742567    2.89236694447797
C         6.94657766080205    3.65746303570633    2.80238931509877
C         5.80791366504364    3.60710155885126    3.77607233807459
H         5.07549662979407    2.85474146490213    3.45399070213406
H         5.30765543300516    4.57327790420742    3.86771148358735
P         6.51650901947996    2.97411057356081    5.38683093025048
C         8.94747236453426    2.64900279903983    2.01893712014922
C         8.75245946106596    2.25058925140875    0.69218707173173
C         7.38367380335266    1.89717519163608    0.19545528477402
H         6.77905388156367    2.78972499677405    0.02608937055369
H         6.87224957033532    1.26610238295022    0.92373212732148
H         7.45609365212402    1.34985491305480   -0.74013319676657
C         9.86260857718353    2.12850147959859   -0.12933910152018
H         9.72334186762498    1.81276169234604   -1.15224682187857
C        11.13351922387259    2.38694528899930    0.34726356810056
H        11.98643073515091    2.28691506274008   -0.30613965597599
C        11.31668972208489    2.74339890125220    1.67138888970369
H        12.31268477271396    2.91277499336535    2.05274017725684
C        10.23646382745290    2.86803855120068    2.52916677686426
C        10.44388087892012    3.20008368535821    3.98149583950534
H        11.47436341469257    3.50042704140901    4.15691308748566
H        10.25417849060110    2.29910174862269    4.60467747447462
H         9.78494757756198    4.01147023233206    4.31395841773506
C         6.96736683647443    4.75513434602101    1.82547011680580
C         8.14154276068303    5.44127607095119    1.51743298944931
H         9.06203903089018    5.19323967915065    2.02178175659699
C         8.12863084913643    6.46035346869548    0.58401805088449
H         9.04412525364867    6.98564389625240    0.35833740572842
C         6.95227253411300    6.80479129140767   -0.06052299982017
H         6.94822424733686    7.59423593777301   -0.79646044526960
C         5.77876175887688    6.13455609329775    0.24488455579421
H         4.85769017089782    6.39943946448237   -0.25240413195084
C         5.78141468833025    5.12396110395544    1.18654498598239
H         4.86536969936485    4.59475864876276    1.40667069577768
C         5.09242476093709    2.11892782718681    6.11498819724743
C         4.83469970016109    0.85630068618696    5.57705640720293
H         5.47976575524781    0.45912141109828    4.78168599436083
C         3.79426822798001    0.09497369705515    6.07004566614170
H         3.59987369332679   -0.88487694390413    5.66094007511239
C         3.01432167049096    0.58615915265888    7.10689796820279
H         2.20612632242762   -0.01194275224536    7.50008112645993
C         3.27988312931524    1.83073163429052    7.65258337288023
H         2.68019246402622    2.20138601235511    8.47065006087714
C         4.32142886360045    2.60113709921937    7.16388994032852
H         4.54269612054234    3.56319372302388    7.60378409817690
C         6.83814511098649    4.43644239122241    6.40715624459870
C         5.97286335548049    5.52312767777638    6.48802671406010
H         5.04980221403270    5.53107551660508    5.92412659204425
C         6.29434390648914    6.59230815138179    7.30355682492533
H         5.62326673856958    7.43618625840968    7.37027993930580
C         7.47055262069854    6.58155913286137    8.03784755337592
H         7.71243761350240    7.41985165030671    8.67384193352676
C         8.33243872103763    5.49974032135475    7.96035280739910
H         9.24592017521670    5.49070076628178    8.53530033690883
C         8.01913327823314    4.42784361492413    7.14458292238679
H         8.67928307342911    3.56975935262395    7.07844984043225

