64
CSD_code = ECUSUR | q = 1 | S = 0 | Stoichiometry = C28H33NPRu(1+) | MND = 9
Ru        4.61139237463662    3.04931719628313    2.51080941987344
P         5.83602400234057    4.99003287655131    2.59162597776457
N         7.18876655577366    1.25542192192580    2.15939991522556
C         2.75903752444518    3.90420925805394    1.61776642761268
H         2.48118683157902    4.93923414778635    1.45737225492440
C         2.37084058755527    3.09992903611159    2.70625096504350
H         1.75863480522702    3.41253446797755    3.54023567918880
C         2.78713110901180    1.76592070689621    2.43341104168605
H         2.51139475549132    0.89196517902052    3.00954849112185
C         3.37862697652286    1.74035970757279    1.14065145394332
H         3.67168918499098    0.85041923910152    0.60091998896280
C         3.39425833833091    3.06151240865812    0.64026485049942
H         3.64838686155261    3.36083272157435   -0.36785133090542
C         7.24268528416791    5.46492846591742    1.55353658292553
C         7.21882728514652    5.11055938782293    0.20867782690594
H         6.38141214337266    4.53518324809874   -0.16569280176219
C         8.25328035003363    5.49664335222072   -0.62496492322120
H         8.23519913528735    5.22869216470216   -1.67032706699906
C         9.31312451743392    6.22930079235941   -0.11401450690722
H        10.12134618015942    6.52973887125996   -0.76267950116319
C         9.33823204386033    6.58252754271961    1.22707810728698
H        10.16356549975381    7.15775208222528    1.61809738059602
C         8.30361955681147    6.20687931826386    2.06457375511571
H         8.30776036195999    6.49481269206605    3.10664980355641
C         4.92505239994473    6.54104653051472    2.83886690598952
C         5.19931858372462    7.69914971190765    2.12117767710290
H         5.99174227724354    7.70889403089778    1.38690799046883
C         4.45174210050297    8.84121449539712    2.35515590852510
H         4.66723238631018    9.74213219429057    1.80135790811613
C         3.43189424994316    8.83049040424191    3.29176060222281
H         2.85330834887679    9.72376725131709    3.46920324434357
C         3.14639118128911    7.67038306486711    3.99710475864117
H         2.34524818315509    7.66076076341447    4.72074615066101
C         3.88496892341499    6.52699886905907    3.76652141474648
H         3.66163491444618    5.60933368175097    4.29708907305370
C         6.48408504846356    4.60721511138818    4.28322680027403
H         7.55038444907714    4.35334928011507    4.27753096317996
H         6.30708571498891    5.42038716111644    4.99012895582527
C         5.61595030341939    3.39608698597406    4.59801796328583
C         4.95660412621174    3.23824446953484    5.94520534923438
H         5.72102599466721    3.33195128369468    6.72420160273246
H         4.19227599231363    3.98900074657161    6.14455277377350
C         4.38884850232999    1.81426563124814    5.90336194016594
H         3.39714938982385    1.83145140548000    5.44688001253232
H         4.30406814551689    1.36825208362851    6.89136394174547
C         5.35870154483735    1.04433361133988    4.99505877290010
H         6.20265117072818    0.66255400843330    5.57794345423528
H         4.88528975475644    0.20382270452975    4.48603363868650
C         5.86051219000533    2.11994810111260    4.05545501586106
C         6.29144683749609    2.02380098301495    2.70259113163389
C         7.34081824257123    1.22291338394941    0.71268908338442
H         7.31744292077336    0.18314485056621    0.37820015994857
H         6.48169735667333    1.74940036453736    0.28941694641055
C         8.63026924141872    1.89339000039839    0.24980928848166
H         8.61808431180252    1.98170193859376   -0.83223699362926
H         9.50837492168445    1.31687483174470    0.52705704872867
H         8.71147573270934    2.89054891406666    0.67598847701719
C         8.09604447791078    0.42832020886779    2.94537704443165
H         9.10127237495890    0.51959647624910    2.53001797252987
H         8.10805529695197    0.81716808833003    3.96574381895017
C         7.67036502853349   -1.03652601959087    2.94942460373582
H         8.32973260624066   -1.60179293739745    3.60162666341100
H         7.73041630495456   -1.46717686290850    1.95368990805846
H         6.65151620388175   -1.14150458741320    3.31311223732004

