51
CSD_code = ECUTUS | q = 1 | S = 0 | Stoichiometry = C21H25N3PRu(1+) | MND = 8
Ru        3.70437759214782    6.22364338977890    6.34669275163204
P         2.71890355334448    8.15200779834869    7.09800227454013
N         2.16855551117775    7.23175219652309    8.42201655762115
H         1.32323276034400    7.47385753291940    8.94422272964810
N         2.23546226353338    5.86098464729959    8.00624638717843
N         2.38140730817220    5.76792694670079    5.02897768439986
C         5.78455878259147    6.99083479174608    6.09804642089594
H         6.09745995169683    8.02330134041742    6.01384665552001
C         5.69682137335731    6.24783374352451    7.30781969577953
H         6.04290658322347    6.59124344879117    8.27318604875596
C         5.41755444859421    4.89489896756230    6.95742531879014
H         5.41865800355969    4.05383687040252    7.63715856905453
C         5.27627889759761    4.81506534567870    5.55897566715719
H         5.17875518164227    3.90600665340990    4.98167421686516
C         5.49302996949625    6.12336341433930    5.01889342752970
H         5.59662594749412    6.36148751014641    3.96861888791625
C         1.26062679126890    9.04099919134217    6.46129015024251
C         0.86385426216819    8.87721363755200    5.13991823529928
H         1.44961746641980    8.23880127909901    4.49096985800896
C        -0.25632185142672    9.54244275755435    4.67200918189189
H        -0.56326041754132    9.42709107988144    3.64354022101486
C        -0.97909852131537   10.36336170242241    5.52262018775249
H        -1.85068836041446   10.88340486089904    5.15630052645425
C        -0.58289351597208   10.52739738263171    6.84191296212590
H        -1.14515643036146   11.17342680346890    7.49872548531970
C         0.53827842745964    9.87129668016128    7.31417645278541
H         0.86811250405696   10.00726967847953    8.33596880907403
C         3.66293333331561    9.47380586171214    7.89597553848503
C         3.86311335711824   10.66579757481317    7.20551316375006
H         3.40727505443725   10.80247243101198    6.23380898459831
C         4.63377472632870   11.66542739413972    7.77007367303620
H         4.78534992547721   12.59280106390016    7.23926193558560
C         5.21082418055839   11.47569011958798    9.01619987663447
H         5.81005242970978   12.25786364135100    9.45612439247441
C         5.02312024176342   10.28328933151302    9.69789148270595
H         5.47614513752281   10.13858464948808   10.66706647517249
C         4.25833075991678    9.27699807439718    9.13714785121406
H         4.10681832703233    8.34250212121592    9.65845059774567
C         2.74581430440935    5.06236793131616    9.12196141111437
H         2.05071362796781    5.09259564227438    9.96794929797827
H         3.70518741720265    5.46689569784352    9.44210204383154
H         2.87271686537212    4.02859390290279    8.80592672534492
C         0.91183102630253    5.37847992851563    7.61441531850348
H         0.23064458072465    5.38499623806706    8.47399747861799
H         0.98707199190959    4.36103807085147    7.23166704800040
H         0.50744384711212    6.02911230680749    6.83350672258756
C         1.81017217894820    5.38361903136395    4.10023901532116
C         1.05106325870957    4.94205890425292    2.97110822333685
H         0.11751963287574    5.50200351581108    2.91043974203300
H         0.82470855638221    3.87958093457082    3.06224527694166
H         1.62241675659587    5.10467598120829    2.05719236173213

