33
CSD_code = ECUZEI | q = 0 | S = 0 | Stoichiometry = C10H12Cl2N4O2PdS2 | MND = 4
Pd       -0.00004077757729    0.00200936408931   -0.00067757600461
Cl       -1.81792063192208   -0.83461220082007    1.14111337093408
S        -0.57007636463605    3.13593495997408    5.65810610059596
N         1.04894598232113    0.33295768985604    1.73181799700959
H         1.77852314641571   -0.39007166491344    1.83679159823767
H         1.53543459526054    1.25778265366690    1.69811291542046
N         0.25262768010021    0.39286663290991    2.90215026200246
H        -0.61727137114356   -0.14604194488790    2.81889239719428
C        -0.70935830519542    1.76374559511766    4.60964289565622
C        -1.81361678770902    1.00598876285180    4.91386888739375
H        -2.10667797751353    0.12085560056946    4.37888349685290
C        -2.54069301366265    1.52856694341095    5.99539176664314
H        -3.43697976673568    1.08088834192531    6.38494848984558
C        -1.98525419613315    2.66899889182454    6.49542327612006
H        -2.33594159027812    3.26529215137691    7.31449292420597
C         0.28609237197163    1.59657870172114    3.56387562098537
O         1.14367488860686    2.41942441601510    3.28303726245091
Cl        1.81786362826120    0.83821402279222   -1.14292030070366
S         0.56876029444649   -3.13759106461607   -5.65619542671180
N        -1.04887879998238   -0.32922655818369   -1.73321631027726
H        -1.77747139359950    0.39465961868174   -1.83913135645112
H        -1.53652433653315   -1.25342854118844   -1.69905701833606
N        -0.25206886421343   -0.39105259769579   -2.90312073559831
H         0.61817194878717    0.14734061523729   -2.82014885283738
C         0.70908037252441   -1.76449718707482   -4.60905763802738
C         1.81424301924386   -1.00819815219138   -4.91362210800020
H         2.10797895001870   -0.12280765845435   -4.37943960255844
C         2.54119096985965   -1.53263118895450   -5.99433200293409
H         3.43809177990900   -1.08629024723418   -6.38399633433409
C         1.98477027621094   -2.67299925615505   -6.49340930110680
H         2.33515842065239   -3.27048659233313   -7.31173667406358
C        -0.28660834945960   -1.59526093861225   -3.56384732621596
O        -1.14522579829359   -2.41690916870241   -3.28264069738872

