72
CSD_code = EDABIV | q = 0 | S = 0 | Stoichiometry = C36H30Br2NP2Re | MND = 5
Re       -1.71659106345753    2.28961514812327    3.54110619248595
Br       -2.12280163501538    3.02645402476182    1.19585557802908
N        -1.71568027077671    0.56186954251212    3.54256723474140
P         0.60510626420281    2.78294110637825    3.15977856031297
C         1.32267150467870    2.23985996139464    1.58411217957303
C         0.82538015876602    1.06063062439982    1.03768801575061
H         0.00035324276014    0.55624423938584    1.53207709018914
C         1.37174098665068    0.56255475768612   -0.12997722554932
H         0.98111138268897   -0.34643020278972   -0.56143156438864
C         2.41342294185161    1.23581220741606   -0.74776212517597
H         2.83589911238506    0.85154770444662   -1.66438381949558
C         2.91476296961258    2.40414149716775   -0.19658626945910
H         3.72739192176740    2.92629959209976   -0.68044344448391
C         2.37611417543905    2.90903166670670    0.97244611688441
H         2.76448250586063    3.82383519182793    1.39973896202929
C         0.79170824258253    4.58274726932916    3.22170420745258
C         0.50519632789341    5.33987920548936    2.08624431771450
H         0.27006933581465    4.84759735750791    1.15128929713833
C         0.50935631901733    6.72024311726116    2.16344212820549
H         0.28400231242211    7.30370823360748    1.28294724001555
C         1.06384777677611    6.59779715607140    4.49769426168255
H         1.27144187757120    7.08624173300617    5.43817491647522
C         0.78829984343960    7.34939434616560    3.36635148577365
H         0.78370885910127    8.42796244358001    3.42385571717799
C         1.06082203799371    5.21676129620546    4.43343710684123
H         1.25232063421823    4.62927155894086    5.32142246729866
C         1.80400956951142    2.09259817761474    4.33389274923507
C         3.06659011601745    2.65200796169812    4.49824204477925
H         3.33711095418005    3.55219765195469    3.96277849291429
C         3.96832636904055    2.05584578192936    5.35931521571266
H         4.94669460446824    2.49264003513832    5.49711074816532
C         3.61891306678522    0.90293856478279    6.04506771319256
H         4.32713056926528    0.44585441745347    6.72023019595971
C         2.36714892005803    0.33706624345194    5.86751544637040
H         2.09699992224500   -0.56188110237280    6.40032323297567
C         1.45743388959948    0.92756346205025    5.00976122488432
H         0.46943402173136    0.50215905839923    4.86182313659932
Br       -1.30736627445575    3.02551152305717    5.88443596924631
P        -4.03625014393634    2.78456309132308    3.92411960849423
C        -4.75394936160258    2.24064974671737    5.49936288123277
C        -4.25549134507356    1.06190212198079    6.04572125976039
H        -3.42993979234288    0.55830278229050    5.55137563009442
C        -4.80139227717997    0.56315299626186    7.21327585794731
H        -4.40968438299518   -0.34538239029777    7.64470312387650
C        -5.84400318937581    1.23515136353830    7.83083973170268
H        -6.26620652691161    0.85033033818535    8.74734171760505
C        -6.34667089641255    2.40287321132929    7.27955574039146
H        -7.16012798017816    2.92392826813386    7.76319978177350
C        -5.80830653714146    2.90856593020237    6.11075544861284
H        -6.19753931627340    3.82301389689630    5.68345685015683
C        -4.22258419611408    4.58442043733115    3.86216870624129
C        -3.93594417313054    5.34163290451766    4.99753042954960
H        -3.70122071770970    4.84944107882944    5.93263450606662
C        -3.93931871878165    6.72199234792742    4.92002069714835
H        -3.71369507573878    7.30555964934157    5.80037981561845
C        -4.49367375499120    6.59942240495844    2.58575859406325
H        -4.70094095167673    7.08781257694537    1.64517300407442
C        -4.21772201148948    7.35108821726039    3.71695564625058
H        -4.21238285025059    8.42964644073543    3.65920215476925
C        -4.49132992415486    5.21839842696764    2.65030362104633
H        -4.68309423020696    4.63084086451363    1.76242374415683
C        -5.23435831315979    2.09399027800916    2.74923888959159
C        -6.49727017749540    2.65238998254828    2.58406355783691
H        -6.76884675770237    3.55254855356412    3.11903895419534
C        -7.39815838108634    2.05515040941697    1.72281066129826
H        -8.37687744784849    2.49099462722187    1.58452342715434
C        -7.04754276735104    0.90240852352720    1.03741644057026
H        -7.75510315020294    0.44454170329447    0.36209538976814
C        -5.79535691007548    0.33768384663647    1.21555108928038
H        -5.52409972157020   -0.56109910920492    0.68305263663190
C        -4.88663304791078    0.92906487874826    2.07371928342605
H        -3.89844846421932    0.50430704690839    2.22228632252967

