73
CSD_code = EDABER | q = 0 | S = 0 | Stoichiometry = C21H39CoN6S6 | MND = 6
Co        6.88550637579486    3.97483116951232    3.25717735283465
S         8.14958366175230    2.46194114600092    4.43939059142298
S         5.31762294241962    5.17955077137434    2.07740993339693
N         7.99080730374425    0.06691737759112    3.28121924209575
C         7.64609951156150    1.35097820738985    3.26010940812887
C         7.68697703926124   -0.84048366853798    2.19985726589197
H         6.96445518971087   -0.37369105488894    1.52976592720734
H         7.25940684740961   -1.75237148443920    2.62700272175538
C         8.97969503871754   -1.18363290516749    1.45386367998047
H         8.76543428624098   -1.91199711490453    0.66977318621736
H         9.36660129184998   -0.26190838423970    0.98654216571552
C        10.24760040527154   -0.80693088025210    3.42999394047570
H        10.67161205991300    0.12681738317754    3.02236313541369
H        10.97398305107071   -1.25535619201910    4.11000122301150
C         8.97063263896597   -0.46120321716893    4.20117341313749
H         8.56147743976564   -1.36897176807456    4.65422780313202
H         9.17274682651324    0.27806250338669    4.97676016159975
N         9.91431820449992   -1.76534894912504    2.39581312691566
C        11.04657056483772   -2.44316258601313    1.79849301028354
H        11.58680232005938   -2.93829142818048    2.61082090885565
H        10.64349917347105   -3.22028338425917    1.14236985567749
C        12.02135938232954   -1.56796772357011    1.00416806226379
H        12.82264466811484   -2.18555117387223    0.60733890253056
H        12.46075813794138   -0.80296889273486    1.63965016842678
H        11.51688242964270   -1.08419983921843    0.17136083391244
S         7.56359907380160    5.82574595806281    4.43985355157284
S         4.94326518709349    3.63652500833249    4.43933679119139
S         6.62670912429072    2.01478405178876    2.07709237031194
S         8.71290650653561    4.73074813362730    2.07776970736071
N         2.94873147055159    4.97222419702756    3.28164750791508
N         9.71723449181614    6.88611714839814    3.28219746937486
C         8.77768058019759    5.94543079261970    3.26083459844341
C         4.23310935611653    4.62872369435737    3.26051358936508
C         2.31481085986337    5.68924727978446    2.20042309087952
C        10.65484056275528    7.07714455049854    2.20079187379519
H         3.08031743179717    6.08159126353031    1.53033099417712
H        10.61253226510567    6.21782127254588    1.53092175611659
H         1.73902458050647    6.51548469610352    2.62774373192172
H        11.65825904378098    7.16369576798906    2.62794200411326
C         1.37108452451040    4.74158506359748    1.45430875766939
C        10.30462954510575    8.36775870131552    1.45444158744648
H         0.84735198984238    5.29160730461504    0.67046583717490
H        11.04242686686061    8.54678359347240    0.67033022351663
H         1.97575765762595    3.94576735482779    0.98665238856549
H         9.31306656265407    8.24100042604605    0.98711921363630
C         1.06349985041328    3.45471307813645    3.43019017250282
C         9.34378268665823    9.27720881783655    3.43043006371324
H         1.66014454162289    2.62074337713852    3.02234450608446
H         8.32315489906783    9.17659040965436    3.02297233118175
H         0.31199792010775    3.04969343966591    4.11014487243794
H         9.36833234335306   10.13069064488953    4.11020576176663
C         2.00144297767186    4.38757591192271    4.20148252305869
C         9.68399170578178    7.99893352934218    4.20188561348070
H         1.41988107657083    5.19575630088549    4.65461786215461
H        10.67472808041435    8.09934706977498    4.65471525814990
H         2.54059040620524    3.84280542234576    4.97701180237021
H         8.94300777672336    7.80397574241680    4.97766285604746
N         0.40006318245407    4.22278542639582    2.39620835955392
N        10.34014056776121    9.46835599042966    2.39605143647363
C        -0.75299181079639    3.58112392902064    1.79873601445458
C        10.35951913600555   10.78761787457664    1.79820924533350
H        -1.45188119477549    3.36061446405915    2.61101926448501
H        10.51750153549332   11.50352204049234    2.61024194571869
H        -1.22453638005850    4.31883036366707    1.14275063387835
H        11.23393590713605   10.82781703383919    1.14196030947529
C        -0.48231089510931    2.29949196875389    1.00420105897221
C         9.11363558379332   11.19254577675991    1.00389676532342
H        -1.41774460700228    1.91432764835210    0.60727353102050
H         9.24671431505688   12.19523864719295    0.60660970464185
H        -0.03945025052557    1.53638076436775    1.63954669990130
H         8.23151897379493   11.18992253649386    1.63950354822449
H         0.18888939589761    2.49470561764838    0.17145049521808
H         8.94752780458498   10.51322200363755    0.17141429941885

