40
CSD_code = EDACEU | q = 0 | S = 0 | Stoichiometry = C20H13F2N3OPd | MND = 4
C        -0.27576834085232   19.55539480245300    6.90839824187784
H        -0.74871966001283   19.80935241106623    5.95355759917493
C         0.38025835976451   18.38772682694065    7.00928389339333
C         0.50793924791826   17.38728573795987    5.93488568530746
C        -0.59819931707000   16.83421883348216    5.29552155478328
C        -0.49292380555948   15.84602065826067    4.33548352778609
H        -1.38786924256205   15.45170995472265    3.88106938143445
C         0.76232796098387   15.37866958476480    3.98627224505388
H         0.85942923578903   14.60216069190703    3.24389503332304
C         1.89242287985052   15.91031923965145    4.58175264940260
H         2.88090331369841   15.57079258305236    4.31651283582180
C         1.75173455987497   16.89829764700319    5.53893375781477
C         1.02046727660523   18.04285898758824    8.32790218640124
C         1.33852071123276   19.13312025828249   10.47517165404891
C         2.09581025006863   18.15274401755151   11.10939132542491
H         2.35176129208639   17.25916588630815   10.56479941053158
C         2.51862601883821   18.31662834865716   12.42568182678350
H         3.10447118723915   17.53129104505732   12.88069190246294
C         2.21237472403453   19.44177985395167   13.15273296190162
H         2.54674987651203   19.55607344532859   14.17278429264532
C         1.45210133579204   20.46577957313078   12.56496052623114
C         1.09632208750817   21.65280634798273   13.23837792785937
H         1.41928871491408   21.79464039692544   14.25983908603900
C         0.35180913362937   22.60376905718074   12.59339286365705
H         0.06575962235972   23.52123251091277   13.08404036650095
C        -0.04470709788172   22.37588158923732   11.26899176523153
H        -0.63581140346441   23.11612389152261   10.73966156050452
C         1.00899540994389   20.31713536345165   11.22003025300423
C        -1.93474826559128   22.87622236256168    7.55746837270627
C        -2.79305092360064   23.89349916844504    7.02870975687012
H        -3.78153971265502   23.81311030004733    7.48115152120958
H        -2.88340431062397   23.76937509177867    5.94966163527479
H        -2.37838623928644   24.87873987553589    7.24247291836802
F        -1.83032012877524   17.27558398234787    5.62841212862205
F         2.86353241271192   17.44231256566393    6.06137460292436
N         0.26983312337526   21.27976736227230   10.60883948772054
N         0.87434588708040   19.09505959465604    9.19040582764397
N        -1.23999985417186   22.06384073168418    7.98827366051635
O         1.54852997182609   16.97140815991672    8.56935850359370
Pd       -0.17566629152566   20.61630126074970    8.60875527014139

