61
CSD_code = EDADOE | q = 0 | S = 0 | Stoichiometry = C28H18CdN10O2S2 | MND = 6
Cd        2.70588671294951    5.09235076108002    4.62026366058420
N         3.75910404541866    3.01850004387781    3.78787422393691
N         4.57124319352765    5.41082116668403    2.96602657929638
N         4.81411245228199    6.63855709057667    2.50888275273283
N         5.39478285759723    8.90496711931423    1.31468874796800
N         1.58649575141999    4.79716756540103    2.85709924446085
O         2.86798920156338    7.48680538341006    3.33792016167433
S         2.64022637104860    3.87820746376194    0.47057275520986
C         4.70695811584241    3.06704074346510    2.86715181378966
C         5.24535557897715    1.89704040098445    2.29100304813489
H         6.00978782216314    1.97557872159733    1.53327729854633
C         4.77981602519943    0.67600241136207    2.70354111071535
H         5.18328927360921   -0.23978908804757    2.29525224067465
C         3.75024438460246    0.61307035988897    3.66194721130240
C         3.20160587143756   -0.60445617152332    4.14929398593419
H         3.59698463659238   -1.53354987499141    3.76451111908272
C         3.25582316575806    1.84519882985602    4.15268571192999
C         5.11465038698913    4.38763659302757    2.43242414787549
H         5.83408563050409    4.46569069318295    1.61233878189505
C         3.89775157388972    7.63324065656247    2.71562239251224
C         4.29349928868269    8.91577879314150    2.06372551166891
C         3.51435993585840   10.05422415818420    2.24690417558373
H         2.63296049523576    9.99064624793620    2.86490390781901
C         3.90534138046293   11.22648631259850    1.62131091855445
H         3.32708699876826   12.13152006795979    1.73667144129637
C         5.05160577545953   11.21563772218554    0.84154902023415
H         5.39004121455158   12.10518010953212    0.33398712181990
C         5.75897326502492   10.02617573706605    0.72309338798164
H         6.65828276727147    9.96634113696124    0.12429946248795
C         2.01588177940526    4.41183955373133    1.83445239798353
H         5.54241760641567    6.82443117162237    1.81171048078208
N         1.66009839899466    3.01586021316842    5.45833834546663
N         0.84453513254202    5.40523568026336    6.27812572856755
N         0.60788809945467    6.63396444868193    6.73710566569376
N         0.04410818922276    8.90787190642639    7.92781447960814
N         3.83109893967216    4.80136934266615    6.38610411858599
O         2.54505576045237    7.47577892139788    5.88188525580969
S         2.76544277709982    3.89202220730158    8.77104374443242
C         0.71585311228338    3.06191728372342    6.38292725245373
C         0.17942813569733    1.89031740723504    6.95764974648002
H        -0.58111840122841    1.96674782053773    7.71948792357890
C         0.64154529894017    0.67042023161094    6.53786789875691
H         0.23872206397512   -0.24656807275188    6.94413698309681
C         1.66740158606368    0.61013098723112    5.57525360781370
C         2.21364628049640   -0.60593259178321    5.08162562497405
H         1.81697861715855   -1.53623924047139    5.46213199416107
C         2.16182724874401    1.84367176608079    5.08811224697632
C         0.31123304574710    4.38207214582588    6.82224551082108
H        -0.39722671256214    4.45982902722310    7.65170984491465
C         1.52360223698470    7.62585409788943    6.51771811012719
C         1.14112925580982    8.91057456055146    7.17247398896407
C         1.92795994787465   10.04301672383157    6.98486220190890
H         2.80544421515188    9.97237925982682    6.36206950456187
C         1.54925983246491   11.21825975217406    7.61230049572139
H         2.13391957716378   12.11877458719586    7.49389453817679
C         0.40692390379832   11.21619156056534    8.39792817603773
H         0.07774456558884   12.10843029426715    8.90677258965484
C        -0.30859384580629   10.03203190723499    8.52076189258171
H        -1.20497138182398    9.97908955859591    9.12456510417087
C         3.39802426936337    4.41970068217701    7.40827557752976
H        -0.11170370785537    6.82118565090276    7.44272703388619

