46
CSD_code = EDAHAU | q = 0 | S = 0 | Stoichiometry = C18H20N3O4V | MND = 5
V         4.73611197166650   16.06673299677849    7.17745034062770
N         6.71681808155314   16.04324486406743    6.53067950649647
N         5.26358253366549   18.17398809284028    7.01017329068646
N         3.05910569147777   21.15879423223102    6.62325849076121
O         4.95562797706636   14.35526540093627    7.47622391283278
O         1.43983451730745   22.15713682002327    4.82290796573046
H         2.23141350510504   21.69586852702367    5.19417024259406
O         3.85755340926625   16.15893327847615    5.92192454634386
O         4.01765183182095   16.52696098758706    8.45404939844851
C         6.51220894979801   13.77046513545637    5.79473246429252
C         5.40128165501925   13.48521306140568    6.64622154513800
C         4.84681530985939   12.18495694827974    6.59123522653149
H         4.00406256795325   11.97691796805272    7.23512690069041
C         5.34761240088127   11.23837941210506    5.73478274954373
H         4.89663847392579   10.25740498858571    5.69854967668954
C         6.43930176709072   11.52271340579545    4.90763347098561
H         6.82441414728595   10.76391888229991    4.24423189754933
C         7.01341190736543   12.76702371958663    4.94706638630655
H         7.85856153328891   12.99818335856955    4.31284687067108
C         7.13854583506017   15.04719871833295    5.84321936649157
H         8.06518644637207   15.15518404739637    5.26142423762368
C         7.42852464479456   17.28847849493050    6.49899622932467
H         8.26076166351594   17.27619067980719    5.77685485078465
H         7.83691044220580   17.48826121085519    7.50068866313120
C         6.40970441357863   18.37542753689087    6.14341020613097
H         6.86668911077312   19.37030473946029    6.24997591260147
H         6.07602375578205   18.23827450329171    5.10852865398547
C         4.08284453484515   18.96426487293335    6.67951676207025
H         3.25012175822598   18.56306526430162    7.26632453541820
H         3.84980082084622   18.81880290833665    5.62133365807569
C         4.25385411401415   20.46316406877913    6.99161966222813
H         4.48826617467190   20.58246142117306    8.06351064583803
H         5.06677694186802   20.88696679820475    6.39256073608873
C         2.20852186117746   21.49291641492308    7.50812619327794
H         2.38033421425012   21.29511172269468    8.57466302059064
C         0.97415891884748   22.16437009039487    7.18126719821297
C         0.63725432752419   22.46801438054554    5.84462942445112
C        -0.56955404315435   23.11748663214667    5.57876150647245
H        -0.81068798855484   23.34049007069093    4.55135652860600
C        -1.42381807651575   23.45861503029930    6.60492610445385
H        -2.35365897297652   23.95987111976012    6.38118566089412
C        -1.09826197910864   23.16134661448268    7.92387649203735
H        -1.77248837206567   23.42997942244410    8.72238252090562
C         0.08794401966935   22.52124963881562    8.20281962799129
H         0.35006429199496   22.28326316966475    9.22396226987955
H         5.51987291096457   18.38823834834373    7.97731444951029

