80
CSD_code = EDAHAS | q = 0 | S = 0 | Stoichiometry = C38H36CuP3S2 | MND = 4
Cu        1.91798411521626    9.36987715570154    2.70366328763995
S         1.24344449285840    9.71010618655015    0.56694837245729
S         3.78980440511745   11.22211458208670    2.33010893082483
P         0.67645213930281    9.92037431871674    4.46312720761827
P         3.54807482501017    7.77015571157130    2.65578859857160
P         2.33889527257938   11.33112932002331    0.99332177014659
C         1.46958155831459   10.55742792548244    5.96671930878487
C         1.09349943543356   10.15752092070882    7.24642148631385
H         0.29298569532979    9.44131822677886    7.37434871468161
C         1.75403286748675   10.67311804776858    8.34558046479992
H         1.46369874018223   10.36435384220203    9.33957253420030
C         2.78711994670016   11.58265443215014    8.17664315975391
H         3.30027821457309   11.97853466967267    9.04098526266371
C         3.16389368739025   11.97947265024401    6.90447318468271
H         3.97231478725558   12.68310806473487    6.77148890285201
C         2.50799917694239   11.46816721804345    5.79906935165830
H         2.80746128612948   11.75488905382494    4.79922554335707
C         0.19736970343376    8.23822107998429    4.93520436783697
C        -1.03741070463831    7.68662599901015    4.61243040332393
H        -1.80533563861097    8.30378472766074    4.16765598477957
C        -1.27885715701923    6.34659441448225    4.86148015938479
H        -2.24072945967932    5.92209360232848    4.61290165596841
C        -0.29372220021971    5.54992726538957    5.42058110832912
H        -0.48558258026707    4.50363742788498    5.60648839569731
C         0.94073972459204    6.09571483400726    5.73836762530542
H         1.71418494402187    5.47863609413189    6.17123772958333
C         1.18811988437152    7.43154923827734    5.49344983278445
H         2.14936290305161    7.86565320057378    5.73314675101085
C        -0.90798661141038   10.80907422851550    4.35559867828176
C        -1.55402413645515   10.74215194337379    3.12133909616623
H        -1.09063973463454   10.18688081669507    2.31280747903730
C        -2.75924053962238   11.39226350938818    2.93598094025110
H        -3.26120099694762   11.33711621727974    1.98116857937476
C        -3.31491898278582   12.12343543238750    3.97459396135530
H        -4.25380038792656   12.63745108092080    3.82996077484888
C        -2.66368983932304   12.20636032804928    5.19489527333950
H        -3.09560462831320   12.78539077737362    5.99828539640912
C        -1.45949549797623   11.55324871656128    5.39140315566214
H        -0.94790053326021   11.62350822235760    6.34091294319144
C         4.89237810181775    8.07300754923325    1.47640512629408
C         6.18792221538394    8.41084223296778    1.84510414676448
H         6.46686271409072    8.43227315814118    2.88904900060627
C         7.11247721467353    8.73250365546042    0.86706476817748
H         8.12067657420759    8.99817392054950    1.15084877597049
C         6.74859845507541    8.72869148137412   -0.46914787683066
H         7.47334386321510    8.99133132405241   -1.22635127793749
C         5.45244810417032    8.40022914987416   -0.83664766340648
H         5.16556558884376    8.40769803799456   -1.87893271290062
C         4.52292624747080    8.07659058934981    0.13189370213757
H         3.50021891357201    7.84110089563323   -0.13745165832601
C         3.02506311324389    6.08350694354421    2.22267140330596
C         3.91724976676509    5.10135019578562    1.80318236748621
H         4.96962615155595    5.33550326284864    1.71323858538207
C         3.44955825356647    3.83590983601580    1.50110646097714
H         4.13971852918173    3.07086355140791    1.17554583736886
C         2.09805572954750    3.54654164980845    1.61379909256622
H         1.73961337664212    2.55562042628442    1.37602534420703
C         1.20686460585308    4.52645547529128    2.01930172503715
H         0.15268613930143    4.30446431103101    2.09612046461714
C         1.66829981082637    5.79530720623388    2.31834147899277
H         0.98561226161519    6.58050693181863    2.61819054005021
C         4.37380093117648    7.56992623491988    4.26076618819267
C         4.55824219386291    6.34793798432053    4.89682647288170
H         4.27332421672500    5.43041246071564    4.40207067436725
C         5.10007973666540    6.31314565065333    6.17013007706299
H         5.24644009681606    5.36276441949158    6.66352175392617
C         5.44801602016648    7.48785613329227    6.81663773390885
H         5.86238776604072    7.45214909974082    7.81356647447480
C         5.25803565089824    8.70891371831932    6.18754655423771
H         5.51918105174166    9.62721840461876    6.69267081173404
C         4.71957159520726    8.75187704100160    4.91621209904737
H         4.55240705673083    9.69711434472046    4.41642253783386
C         3.02550262524018   11.92755674507793   -0.60129154802173
H         3.52791867222261   12.88203688651000   -0.44631657003491
H         2.22640025315449   12.02832367952021   -1.33439339097419
H         3.74987905370852   11.18809351401320   -0.94701558685821
C         1.18453875134671   12.68713721276765    1.47516609684690
H         0.73483969869041   12.42935066079420    2.43736293456460
H         0.40204238014411   12.79078502871350    0.72489155187182
H         1.74396834252459   13.61628751336767    1.57729113144560

