39
CSD_code = EDALIF | q = 0 | S = 0 | Stoichiometry = C16H18N4Ni | MND = 4
Ni        3.42111828344012    7.59161133312547   -0.73973054944542
N         4.19095063757855    7.19064117592897   -2.40615803293736
N         4.96955730116824    6.85656674256443   -0.01653825745532
N         2.90361264489076    7.72627251695540    1.04184519547602
N         1.81081486220268    8.48401518856020   -1.11661003961135
C         3.98427286693889    7.25363710832906   -3.72314500095984
H         3.09872593538169    7.69541623995584   -4.14333202346364
C         5.05010052321982    6.67997053009828   -4.41974572913117
H         5.13409841855978    6.59931768700179   -5.48626483897381
C         5.96213259701969    6.24061046247173   -3.47467837033417
H         6.90110763606441    5.75119915289380   -3.64903851184394
C         5.41852778449126    6.56422811268347   -2.22557613204554
C         5.83159254240742    6.42757842402447   -0.88457268280267
H         6.79803917980784    6.01289041397273   -0.61048694835416
C         5.14207890651379    7.01266343581599    1.41318330527402
H         5.56165759251988    8.01989746861245    1.57780637307015
C         6.01385714920701    6.00717120765790    2.16032578420691
H         7.02981476723662    6.00069865362918    1.76204429404543
H         5.59735421877050    5.00332279985080    2.05245344424463
C         6.04604612766048    6.41906105188128    3.63432488309263
H         6.54617082595987    7.38677513861203    3.71965090916863
H         6.62931250082327    5.69334028557716    4.20391952205426
C         4.64413784699142    6.52385681287667    4.23624979219056
H         4.18368064537672    5.53304481190165    4.24735537496813
H         4.72052123593976    6.86526454012542    5.27012970929558
C         3.74485193410726    7.47827118275124    3.44643746258441
H         4.13565984173486    8.49717739435697    3.49100469117917
H         2.74324882161520    7.47666649441578    3.87960343228135
C         3.71291320892354    6.99879791369629    1.99796205060460
H         3.35781560490024    5.95405944502167    1.98971225184715
C         1.76873849352886    8.32023558985980    1.24143972268872
H         1.32178519168724    8.43702560569904    2.22515429491971
C         1.14629589207408    8.78740446612864    0.06588649610302
C        -0.03031667130640    9.48641056815237   -0.22972846717174
H        -0.74608224325144    9.85105699214161    0.48182841692708
C        -0.07545640692903    9.60331457105864   -1.60895073735330
H        -0.83712892036990   10.08271546082555   -2.19294298208589
C         1.06792458731521    8.97703372019079   -2.10967822169976
H         1.35456763580014    8.88087930059548   -3.14143988055292

