39
CSD_code = EDALOL | q = 0 | S = 0 | Stoichiometry = C16H18N4Ni | MND = 4
Ni        3.39637519036568    4.80658661738960   -0.70990853444886
N         4.12065083990834    4.39730381926850   -2.39496299197189
N         4.85009282985624    3.86984726832256   -0.02463679832057
N         3.03094481553271    5.13735403289451    1.08407369700604
N         1.78290241993332    5.70830729588094   -1.04778184365253
C         3.93814232420357    4.56170108882315   -3.70672473557964
H         3.08897184475029    5.08687641863870   -4.10555336187479
C         4.97816956618791    3.97270126397894   -4.42919150578327
H         5.07488253180620    3.96223436872239   -5.49763707856795
C         5.84712640033503    3.41475598711601   -3.50639052397992
H         6.75591512965387    2.87891423128890   -3.70322477931839
C         5.30388738194138    3.68372418880526   -2.24432251289874
C         5.65750595485878    3.38139968346986   -0.91351779691343
H         6.52398827783872    2.77540463488571   -0.66233956753379
C         4.82931214995557    3.61271329201970    1.40075558832537
H         4.20199603497428    2.71834728260097    1.55664716772927
C         6.15467148292634    3.39500914606343    2.12550898340805
H         6.78119592129508    4.28428070357235    2.02779757075899
H         6.69569019259646    2.54720321592465    1.70199757609463
C         5.84305444419564    3.11791474190454    3.59843563910430
H         5.29160083910496    2.17749440424872    3.67207852886778
H         6.77558791924943    2.99932118678307    4.15306483223595
C         5.01603333607072    4.23593505041805    4.23479819747986
H         5.61014577343393    5.15267428886386    4.25769327513269
H         4.78114332260914    3.96773029021697    5.26639956146949
C         3.71910163926375    4.50558793462931    3.46746379454727
H         3.06516985138085    3.63148896021383    3.50270405255265
H         3.19327378392300    5.34506606632886    3.92532375746755
C         4.08930879187803    4.81817349233277    2.02021330764306
H         4.78548510395452    5.67433877430041    2.02152635574401
C         1.92991347892506    5.78313927661009    1.31055529293848
H         1.60751226075411    6.08174329243681    2.30456740577086
C         1.18957880451021    6.08847953983888    0.15024846851514
C        -0.02762433620437    6.72662737820503   -0.11722937271190
H        -0.70584920981503    7.12744581185886    0.61147586450496
C        -0.16765964789366    6.73230503476992   -1.49505868788662
H        -0.98323850309651    7.13954779606409   -2.06069701443205
C         0.96060256909062    6.10064251651707   -2.02293349512763
H         1.18073848974582    5.92837962379317   -3.06111831629424

