47
CSD_code = EDAMUR | q = 0 | S = 0 | Stoichiometry = C16H24Cl2N4Ru | MND = 6
Ru        0.29241880638769    5.42889089371480    3.54602658495237
Cl       -1.28607237370195    4.85432778524843    5.26617689263670
Cl        1.90298315747792    6.02777113920101    1.86254270895991
N         1.33740082278473    6.33698490729064    4.83599568427056
N        -0.69415865196152    7.38271001380535    3.48194053376551
N         1.66808970697423    3.81059189810079    4.08587485760093
N        -0.81497611987838    4.45460711186632    2.16696472241798
C         0.89502198344018    7.48985953475189    5.35155423887598
C         1.63948920287955    8.18699210280138    6.28491003061302
H         1.27330861845521    9.11957296851075    6.68500245915354
C         2.85621212022893    7.65995698559408    6.70247500475600
H         3.45332970506385    8.17954457770731    7.43470849958420
C         3.29501023716665    6.45536814369766    6.16496780519912
H         4.23518643763608    6.02276963293818    6.46966565937196
C         2.51067766404218    5.82060868533651    5.21974268511156
C        -0.47612599077416    7.87106704735222    4.86138032523304
H        -0.63970809723141    8.95588684401089    4.92265229091193
H        -1.20244331151450    7.36717003112993    5.51098145913599
C        -0.07231474206932    8.32987258188808    2.55777396980006
H        -0.17594278209758    7.97738341955278    1.53297424548094
H         0.99106996211994    8.42245625065003    2.77783757587635
H        -0.54431888439685    9.31785832633993    2.64226312351164
C        -2.12830954287898    7.31859887696029    3.20577630327840
H        -2.28577652777492    7.01416249044559    2.17048133853432
H        -2.59207132296730    6.58192955057627    3.86283481337262
H        -2.60392587456721    8.29531109126996    3.36254466998487
C         2.87937002034745    4.56575574438020    4.47483574938701
H         3.38771586690995    4.87599732033162    3.55359618538935
H         3.56261370092777    3.93492635612936    5.06022898843851
C         1.23072411539297    3.02273282692828    5.23737361374850
H         1.02707410128054    3.67953422918419    6.08287859430932
H         2.00280643484503    2.29627208029659    5.52420735997375
H         0.31455232843587    2.48549179342985    4.99829794529124
C         1.98958307382552    2.90580638434091    2.98324654570451
H         2.81369652365931    2.23285618239346    3.25281862416649
H         1.11289537189766    2.30533374975022    2.73803689321066
H         2.27241057077622    3.48912419524432    2.10613026557796
C        -0.88951879848246    4.87568381856966    0.89547439041692
H        -0.30921374173606    5.75517806712627    0.64588693452498
C        -1.62054652403469    4.22768768671724   -0.08069060110837
H        -1.63050744126546    4.61879029294396   -1.08617590351748
C        -2.33047029647460    3.08250552248536    0.24777643787611
H        -2.91154967640148    2.55314814458743   -0.49128977569812
C        -2.26614484544422    2.64329425277826    1.56162307630747
H        -2.79931356104531    1.76093032703034    1.87993652192762
C        -1.50593915584252    3.34667326372205    2.47504198762380
H        -1.46979227041946    3.03062487088027    3.51011768404332

