52
CSD_code = EDAMOL | q = 0 | S = 0 | Stoichiometry = C21H19MnN4O7 | MND = 6
Mn        2.85996217329803    2.62301501683704   10.69346877020232
O         1.73336067582107    3.62287152700594    9.72149924494021
O         1.78204190380816    1.88291568409914   11.93503635406549
O         2.18597997360166    0.96421624396618    9.27616546209897
O         3.11200427388438    4.19700420440950   11.97592183927307
O         5.22843385686308    4.86051217990822   11.72311503131846
O         6.21490558362441    7.18077203570981   11.05282993716865
O         5.49287306368531    9.25918635184599   10.85704133910251
N         4.29342352395433    3.31694355288722    9.53452065595861
N         4.31216391424296    1.49650498773261   11.29988654403896
N         2.27603220628985    6.65529654595745   12.66052899800940
H         1.66421249203700    5.90042039116975   12.93262541046023
N         3.07223418131028    8.64131439795339   12.16730674657420
C         1.90271022822739    4.88468401562242    9.44139458756792
C         0.82150742115308    5.78284049781458    9.45934303809403
H        -0.14619879679987    5.40435223055339    9.75449566172567
C         1.00575908443735    7.11509057069062    9.16516939093278
H         0.16807977672599    7.79386055817280    9.22738096675308
C         2.25812829948774    7.59932211240074    8.79392005244106
H         2.39332503893188    8.64677870997856    8.57950103799681
C         3.32585930181292    6.73518396378348    8.72067433757040
H         4.30283988853814    7.10219736541371    8.44312736809421
C         3.18237866039334    5.38218478238680    9.05281667200078
C         4.30880328142226    4.49976608878888    9.02606765913665
H         5.21943707628346    4.87849084254571    8.56032248795004
C         5.48952056619494    2.50696547647284    9.48405809503793
H         6.37112239804057    3.09623953136473    9.21055231241739
H         5.33782574905277    1.70325030328901    8.75274703931525
C         5.63713956734137    1.90823362481902   10.88682730177848
H         6.35256099934759    1.07822931165985   10.90268758750402
H         5.97172435559864    2.70918605201926   11.55861676277938
C         4.19226017926514    0.40483990727429   11.98807527022796
H         5.08538199390237   -0.18519990333497   12.20218344777402
C         2.96985726665747   -0.08520653654608   12.53065799309724
C         2.93095580357148   -1.32444600166186   13.19110793110268
H         3.83912973271455   -1.90819210570130   13.24200771326460
C         1.77182399129720   -1.80241116650528   13.74751922128886
H         1.75659276989920   -2.76268885588889   14.23865139243392
C         0.60584576564803   -1.03344116286140   13.68399790909001
H        -0.30522903253882   -1.40907516028685   14.12584940037508
C         0.60799366218194    0.19388661853416   13.07379226499685
H        -0.28570578262539    0.79838630204930   13.02888855902317
C         1.77933810791570    0.71087966448811   12.47062157424072
C         4.02719514117938    5.07144467675846   11.95481153452713
C         3.54208398762371    6.45099833009624   12.18985276292623
C         2.05055409223444    7.98619568705627   12.63514453743091
H         1.13819249030553    8.43896302828687   12.96858482560489
C         4.02702777971302    7.71625599649853   11.87436607690265
C         5.30057787079441    8.13167206505480   11.23042141717933
H         5.92917005621769    6.27551854982574   11.37075500770587
H         1.55514226172437    1.37569808946215    8.67111547544883
H         1.68586114370439    0.33509282013618    9.81104699305214

