48
CSD_code = EDANII | q = 0 | S = 0 | Stoichiometry = C19H21MnN2O5 | MND = 6
Mn        9.52738484388227    5.11015796851752    3.77859614588414
O        10.76489944728972    5.21647201557001    2.50276564254802
C        10.63930774689622    4.87004872019480    1.25321951273809
C        11.69414938331870    4.21124872376114    0.59903196519939
H        12.57128262028302    3.96673971794142    1.17938990475512
C        11.58579853370543    3.83886180922039   -0.71991368692942
H        12.39458648364274    3.30388659886966   -1.19496793113246
C        10.43249938296367    4.13670431592551   -1.43710611470710
H        10.33951970665045    3.82469944173379   -2.46592122987260
C         9.40341661038511    4.82234960089742   -0.83052694304312
H         8.50573055086228    5.01714512107533   -1.39681771924333
C         9.47493368498135    5.21242908776519    0.51144677813240
C         8.39734897753187    5.93646342504123    1.16089189001484
C         7.44591904116811    6.70869236700261    0.28255612887096
H         6.53122749273140    6.13890778252900    0.11925305783958
H         7.90093498046146    6.91492650945067   -0.68074836070506
H         7.18619585082431    7.65925718370567    0.74385586508472
N         8.29170806092403    5.94049510081165    2.45188103415733
C         7.14070735402318    6.55274444177907    3.08448887705074
H         6.26291744453690    6.57273147757628    2.43222748567549
H         7.39738018205612    7.57703066966020    3.38508471121050
C         6.81987350464451    5.72280244237441    4.33138164927051
H         6.10380888815574    6.26659812291682    4.95497542372622
H         6.39174961787179    4.76270307821205    4.01666328094321
N         8.07259761215579    5.46295657503189    5.01154090049360
C         8.08160486679197    5.30992141437530    6.30689781810140
C         6.79828149868720    5.28370572610981    7.09858890956603
H         6.40652915282163    6.29055451548597    7.24835425053831
H         6.95768673347723    4.82479305499407    8.06837087919764
H         6.05120054646571    4.69517153545814    6.56990676741655
C         9.32024729287840    5.11803138262562    7.02693609371032
C         9.42726302157522    5.39473076386276    8.39907093231546
H         8.58707878440872    5.83142977582300    8.91741574006514
C        10.59275735792823    5.18324245184448    9.09544062275251
H        10.64897651747034    5.43040980658047   10.14432008811493
C        11.70236130564386    4.64293018970791    8.44500566551624
H        12.61267238517369    4.45820618769104    8.99595457586687
C        11.64220179367258    4.35380895349570    7.10688118491946
H        12.49131212704002    3.94067752283913    6.58288000593286
C        10.47322673668976    4.60266135118180    6.35007191758433
O        10.44524931406257    4.30797964894343    5.09511969537605
O         8.67709007794902    3.38303399066950    3.29301310271222
C         9.31363561664123    2.31409710178218    3.02226531754656
H        10.43576857337875    2.38113310986510    3.14943104539670
O         8.81860419946606    1.27331226405185    2.65198055797343
O        10.54065595104081    7.10430082188093    4.45262519610422
H        10.87222318783281    6.91536070858023    5.33923287548233
H        11.31319495695814    7.16535542458832    3.87598848984847

