60
CSD_code = EDANAB | q = 0 | S = 0 | Stoichiometry = C31H23Br2N3Pd | MND = 4
Pd       11.44242250696965    8.16199177679587    8.50003694496593
Br       13.06300230008839    9.89085877998661    7.84371387174568
Br        9.79734365505575    6.47666177286813    9.15616931970657
N        12.69253125155993    7.44759932314009    9.91345914006065
N         9.07724636263972    9.65587193006860    7.72424847579033
C        13.08965907999839    6.18055789357419    9.98469320280321
H        12.78663142133849    5.53191413148615    9.17022419508524
C        13.83548368264451    5.69380311286308   11.04376365622874
H        14.14028465898483    4.65949647350776   11.05362128817370
C        14.16792651009505    6.55025062426004   12.08076316825191
H        14.74512402156359    6.20103423558637   12.92345117547685
C        13.73630317485002    7.86536647570498   12.01240584264176
H        13.96339355855722    8.56949441079805   12.79703591931538
C        13.00523987590537    8.27289804211889   10.91112714370242
H        12.66807919670687    9.30302988232464   10.82280953930241
C        10.14434958751057    8.96413230878824    7.27688666556553
C         8.36107697620716   10.14703514729097    6.66170658236151
H         7.48427115545194   10.74776069811178    6.78975882799658
C         9.00700026478304    9.74938007502594    5.54049819367731
H         8.78258118241450    9.92556108174247    4.50855260389415
N        10.09685770058877    9.02032938105676    5.93880300405279
C        11.07609045575855    8.38500300535139    5.08118846514343
H        11.98270630187977    9.00191134736553    5.05500627014468
H        10.65828581284678    8.32133977943173    4.07257119415061
C        11.39494732777243    7.00722889322580    5.61835572998077
C        12.64973365089617    6.72043183693486    6.15966948086348
H        13.43828585012395    7.46474269709886    6.13274875299284
C        12.92008294793505    5.44465307095708    6.63914578336907
H        13.90829258946890    5.21652291703285    7.01585087522994
C        11.93671079314579    4.46815149802752    6.62009682239541
H        12.14353612134100    3.48278169163288    7.01144957471103
C        10.68540054346273    4.75691511177526    6.10302937290855
H         9.91377054980485    4.00290010417374    6.10032971628138
C        10.41857241309774    6.01637266224520    5.59625705198185
H         9.44102059144457    6.23663022337694    5.19004677310382
C         8.79032542185652    9.77589836478039    9.10586930625042
C         9.80356757842281   10.25758735489248    9.93585868669063
H        10.71909809595693   10.64706994589052    9.49195210364324
C         9.60631840386126   10.33839125363608   11.30094856212562
H        10.38938606971053   10.72374680329293   11.93851044824787
C         8.39410426868850    9.94403421933536   11.87066014236677
C         7.36371292905759    9.45001248104700   11.03319891599312
C         7.56300408501144    9.34702221227872    9.63189580379537
C         6.52859784717585    8.77421931825926    8.83425329944594
H         6.70272948289051    8.62917072969764    7.77865416611781
C         5.35709810180234    8.38022408366490    9.38339881510146
H         4.58622137618171    7.93848442656853    8.76845381181172
C         5.10673595056227    8.51720778884300   10.77899663528687
C         6.13264801173964    9.04251171799726   11.60181988286808
C         5.92273685188743    9.15318707608470   12.99891803487901
C         6.97607944205309    9.66299183098893   13.81288065411841
H         6.80572321339310    9.73980571292692   14.87741890194876
C         8.15978275754700   10.03443053114142   13.27360484451527
H         8.95662088587068   10.41334910641868   13.89789646362252
C         4.69675563691707    8.75647849172918   13.53556582795718
H         4.53608216452148    8.84258007948412   14.60070405414367
C         3.69778913169679    8.25506420204114   12.72164197586615
H         2.75532371056132    7.95264832493091   13.15463506596400
C         3.89756496740287    8.13149198002409   11.35892180047432
H         3.11584954234049    7.73077956831195   10.72976717272103

