110
CSD_code = EDATAG | q = 0 | S = 0 | Stoichiometry = C44H60HfO5 | MND = 5
Hf        4.15604595326885    3.96270327530852    4.16490334787349
O         5.92938882620234    4.18750274828879    3.62255021986722
O         4.21012712455906    2.07972575279316    4.43092946670530
O         1.38546773236112    4.53718409389667    7.18989064626150
O         3.35446779136565    4.10654363037738    6.07889279016728
O         2.59140159761132    3.91866909231636    3.10184904605062
C         6.87741523727219    4.73363420188666    4.49322692318852
C         8.08867627210951    3.78966150036001    4.60775075124562
H         7.78058248131905    2.83288757837368    5.02052821571680
H         8.85326349930410    4.22886243451072    5.24364190576556
H         8.50863637952597    3.61403654558754    3.62154226540662
C         6.25317460328015    4.91265324662550    5.89213454670815
H         5.47087252405497    5.67945684448666    5.86032227194069
H         7.00814578977959    5.22385293221318    6.61362482236068
H         5.83097636403717    3.95674416508459    6.21809990355759
C         7.34512227690830    6.09795603547186    3.95485422189374
H         7.79706286005387    5.96167915188786    2.97590848129164
H         8.07588346349525    6.54411405071765    4.62444511359053
H         6.49368404965239    6.76641995884069    3.85154758476975
C         5.36237159363565    1.41273137068278    4.59422639368208
C         6.14717912320475    1.05742953884946    3.47799934008308
C         7.29809821457972    0.30945129221542    3.66929198826495
H         7.89376817227637    0.02006734661277    2.81673574632291
C         7.69398576864394   -0.08642919668343    4.93383479675320
H         8.59501048777254   -0.66700920240953    5.06491952585714
C         6.91787463472194    0.24753073419209    6.02804390138110
H         7.21791917040510   -0.08473257399705    7.01012385250965
C         5.75572691732670    0.98987213042676    5.88162779944965
C         4.85684594267383    1.28110593405587    7.06266499802095
H         4.21150329340913    2.12564221191243    6.79367767455084
C         3.95328065546431    0.07071816731476    7.31702447806213
H         3.35999987646278   -0.14041373338943    6.43094877660305
H         3.28347181497126    0.26973708045985    8.15141730552896
H         4.55330495259334   -0.80773232521246    7.54804425681882
C         5.62908830427755    1.64425321731750    8.33097275744691
H         4.93881867282640    2.01999795149700    9.08356256394274
H         6.37570273837454    2.40959978567756    8.12671252025045
H         6.13395254151629    0.77408557992902    8.74407758920303
C         5.67554154662298    1.43140367998443    2.09342612051474
H         4.85844605606764    2.16326975778159    2.20808811284632
C         6.77449862707238    2.08261149546832    1.25548278947838
H         7.64734271190563    1.43976884094118    1.17392405134955
H         7.06622014301123    3.02558076123025    1.70904454180602
H         6.40137826602903    2.27338033407589    0.25188423262414
C         5.12726007411832    0.18679401470832    1.38859849912525
H         5.91540506306011   -0.55223826668954    1.25870057315266
H         4.72695481995663    0.45191250024440    0.41316588021091
H         4.32808493718015   -0.25854668075220    1.97501925700671
C         1.73196711475236    3.65795877378839    8.23159837050632
C         1.04013653916367    2.44883280879217    8.31388289422552
C         1.29407742318459    1.62953930796840    9.40527355006190
H         0.77098194588439    0.69337249348218    9.50982047895734
C         2.21198730298744    2.00160761571085   10.36878552618857
H         2.39890545648113    1.35355084479980   11.21229408497856
C         2.89017386647181    3.20051413489522   10.26131230386746
H         3.59346273615658    3.47753859221745   11.02956692986446
C         2.66611647847038    4.05677711129725    9.19052320750816
C         3.33559374457787    5.41008223733946    9.10679056482775
H         3.55349949680004    5.63368501349477    8.05826183315561
C         2.36068992857835    6.47237875769170    9.62828857976556
H         1.44100603785919    6.46724995048494    9.04791528721859
H         2.80918647689475    7.46082064485009    9.55851746886720
H         2.11234056136353    6.27466251679222   10.66922791794084
C         4.66156655358904    5.48717758571903    9.86164951199804
H         4.50675117516190    5.46505331851406   10.93766524818069
H         5.16159099690879    6.42199395250949    9.61720619472297
H         5.31467988527746    4.66504035280531    9.57869438804294
C        -1.25158267684585    2.92331468046394    7.49268225758413
H        -1.67859779285182    2.67880547301418    8.46365455766877
H        -1.98870913663014    2.70326927908215    6.72363423353189
H        -1.03301280679663    3.98751230471671    7.46859480582138
C         0.02208061665134    2.10368560210078    7.25417699696494
H         0.43976060462970    2.39430693832623    6.28335875635556
C        -0.31508822509895    0.61573987842984    7.20420540005455
H        -0.87477884517924    0.31170618463477    8.08616828099231
H         0.58885127042789    0.01513306714836    7.13337358405050
H        -0.93529095371659    0.40934255500257    6.33454818281280
C         2.51843243717944    3.13420637286841    2.01143163609592
C         3.11878899807307    3.54742331937049    0.80100393075305
C         2.95383309957167    2.76701096381422   -0.33115116528239
H         3.39492904826872    3.07561904698200   -1.26585243087938
C         2.22184372365557    1.59222354388565   -0.28773079655301
H         2.09654939950531    1.00086619775129   -1.18290382365930
C         1.65338650364290    1.17944673106187    0.90138783896866
H         1.08512047529516    0.26153289822092    0.92701831197890
C         1.79569647704625    1.92981117370020    2.05897718667761
C         1.15666202632424    1.50217523911640    3.35870484894931
H         1.50784139678993    2.19722312791134    4.13505816987720
C        -0.36688508186190    1.60221913425448    3.24968990363461
H        -0.65923286492865    2.61422618582023    2.97817118882786
H        -0.83825533235795    1.34746954957467    4.19632609736244
H        -0.73879078395909    0.92209923235274    2.48638202283691
C         1.59500439278339    0.09338162522948    3.75771184448404
H         2.67526291255621    0.07092094177676    3.88038331515765
H         1.31137625349940   -0.63642726462375    3.00301738861506
H         1.13092924072879   -0.19151274879653    4.69924733945182
C         3.88539005542083    4.85140164203701    0.80155788641976
H         4.49005215082008    4.86733951044822    1.72968166977435
C         4.83220349403694    5.02656746407377   -0.38329906688976
H         5.50175971461484    4.17688564495063   -0.47693784897160
H         5.43395734120388    5.92053765577394   -0.23604946620799
H         4.27726914074513    5.14493706371365   -1.31175351498873
C         2.88886229736991    6.01788437947859    0.83560238124889
H         2.31064365655478    6.03650750656302   -0.08699965448915
H         3.41295412502741    6.96574160738979    0.93873520667784
H         2.20124826669138    5.90514078558413    1.67000604682192
C         3.94745236748564    6.33465573831522    3.82852878685721
C         2.88877356731698    6.43700806818342    4.49698482546583
C         2.35087005781022    6.02490266744137    5.62746572976172
C         2.30419572027375    4.83339403254307    6.27424996667346

