116
CSD_code = EDAVAI | q = 0 | S = 0 | Stoichiometry = C45H65HfNO4 | MND = 5
Hf        5.41066034080279   13.67156090383149    4.07745104714041
O         6.08775087699246   13.66070653430826    2.28854666048405
O         4.94787996904980   15.41114455384277    4.71825082530736
O         3.66272979344768   12.91410491188056    3.99964494740676
O         6.18760528343482   12.29906068124838    5.20982110557668
N         7.53101280713366   14.74686176655253    4.54187887416106
C         6.37656737767818   14.72540893092222    1.53382741343191
C         7.74119811651820   15.95471658728141    4.02191246151361
H         7.01279240668585   16.30081451599565    3.30144966653064
C         4.65081756078620   15.74369030417863    6.03990635252040
C         7.66057570356907   14.85162447343638    0.95875295676975
C         6.25608994907721   10.95475893595781    5.23199919949821
C         8.38972750160417   14.31151572008729    5.46168769256272
H         8.16807821973173   13.34090912991858    5.88524312598056
C         7.02155641487965   16.94746446800325   -0.04368374232870
H         7.27011040874229   17.80943604263448   -0.64481824913524
C         3.20003375656631   11.48925741196154    2.12020885773566
C         5.25552305584155   10.18632248451428    5.86730289387667
C         9.49463061132889   15.03684715679109    5.87860261022354
H        10.15831381761435   14.63270385774454    6.62697033316310
C         1.12567006705083   14.03412562004743    4.04421722572904
H         2.04413096434884   14.59749491575245    4.25502422759397
C         7.50491978528000    8.91516016922270    4.85351815626195
H         8.38170339507929    8.41444299441601    4.47038835285797
C         2.82292925131615   12.47217141861028    3.05450294199188
C         8.66541736781158   13.73833070845853    1.13385087815241
H         8.22920667263481   13.02415943113047    1.83727809013160
C         5.41960421572481    8.81708027848460    5.99671871313503
H         4.66509380718444    8.23722723830741    6.50619067956538
C         1.50018232659235   12.97028309211940    3.03798519106716
C         8.82196372741864   16.75029987566189    4.37233165132579
H         8.94999817548673   17.71653731915286    3.91038827848714
C         5.40376153280293   15.71011826316333    1.25485510232861
C         5.74659145389807   16.80137830736984    0.47142111923482
H         5.00218037946657   17.55010761129434    0.24800259012406
C         0.95520043926472   11.48455858424595    1.22570618961649
H         0.23258546236698   11.09233663860792    0.52553257409428
C         5.83046794644400   16.48961531558358    6.70330968218697
H         6.67610441923314   15.82124505367585    6.85013253033112
H         5.52724669942194   16.88297806851963    7.67058722770536
H         6.14302624404912   17.31742638569530    6.07062688712828
C         4.04472442247774   10.87031336313344    6.45692773723745
H         3.97147500325956   11.85415887306508    5.98153668708354
C         3.98709852752243   15.51390388466501    1.74089801353756
H         4.01922064379576   14.79233296813346    2.57530825787637
C         8.48452655942057   11.06889426867073    4.02537525431076
H         8.10823000446677   12.08746516826124    3.85250359866578
C         2.25289883097286   11.01318521617818    1.22435774284069
H         2.53245755097991   10.24816737639659    0.51496044080066
C         7.96242084420488   15.96269401940964    0.18891647640195
H         8.94631684982452   16.05518232949812   -0.24698262454305
C         9.72269964287056   16.28274133178322    5.31579969092686
H        10.57625509407133   16.87546077012009    5.61024586778832
C         7.38294120116383   10.28777274072522    4.70459782595599
C         8.86932444675727   10.46574449949039    2.67423119004365
H         9.25139585624878    9.45432925826819    2.78828261456137
H         9.64644415563531   11.06532880611259    2.20604600545929
H         8.00808282008417   10.43487253887466    2.01267101041020
C         6.53566758877429    8.17390025834656    5.49846457842575
H         6.65003973252016    7.10661140964036    5.61561432974011
C         8.88440858497963   13.02510288685103   -0.20349631881065
H         9.30290775752608   13.70870279191877   -0.93899121782931
H         7.93958453747503   12.64716166418970   -0.58627165696637
H         9.56894150703726   12.18778408180170   -0.08298234489013
C         4.60510444712428   10.93081023357162    2.10189732224081
H         5.20846147462233   11.48285509580916    2.84574674502528
C         9.99707680085936   14.23285969510783    1.69989366118248
H        10.48227298206848   14.92204466480042    1.01272212889379
H        10.66949569006543   13.39259700436338    1.86387333559888
H         9.84863348118431   14.74373018592304    2.64877417285795
C         0.58676971601830   12.46222281069893    2.13220989388669
H        -0.42797195844300   12.82967021891962    2.12963889947631
C         9.71971021582726   11.13551182561123    4.93093037840289
H         9.45117316195801   11.45714168355638    5.93471641532373
H        10.45527097461626   11.82897893756102    4.52666196160150
H        10.17882074675381   10.15216893585882    5.00921232346169
C         5.24998759198498   11.11761101935114    0.72535180109258
H         4.66885700522776   10.62016356814933   -0.04789026523387
H         6.25223509812291   10.69451866173223    0.71995784464598
H         5.32366389247119   12.17431723196243    0.48095626571498
C         4.35723838900845   14.46248921261116    6.83527144442347
H         3.46571467166358   13.98920153395930    6.42556313707736
H         4.19127157366445   14.67934904883521    7.88924107387370
H         5.21040879478773   13.78488660847295    6.73417890271172
C         2.73900195324268   10.12371290346334    6.18198565488030
H         2.57043562190877   10.03198954545546    5.11125944623575
H         1.90305842117768   10.67203527960592    6.61216664464205
H         2.74199141348469    9.13021805769609    6.62334911360309
C         3.41977172780235   16.67100347754143    6.07941931956126
H         3.64374558958833   17.60200231487977    5.56514653682337
H         3.14139116376546   16.89172077186407    7.10681432618614
H         2.58205922850356   16.19507847203867    5.57883598442793
C         0.66169765458335   13.37508766821712    5.34645384573192
H        -0.22837224386752   12.77455493782938    5.16729095439760
H         0.42830903600866   14.12878444155300    6.09712245200250
H         1.44276433087467   12.72522991394976    5.73023721372650
C         0.05910676451246   15.00545946055333    3.53995300781299
H         0.29691812710151   15.36522851941983    2.54127621806962
H        -0.00856027843667   15.86233234980874    4.20865390738550
H        -0.91877431360573   14.53017121157121    3.51058688056306
C         4.24650885985506   11.05534498399198    7.96430400022104
H         4.30735662664585   10.08630992446471    8.45627913211170
H         3.41852475589460   11.61277067937112    8.39790495499725
H         5.16996959688764   11.59544449434144    8.16072012198435
C         3.14808062715285   14.92049841486909    0.60304834823056
H         3.12455071543100   15.60609296372568   -0.24256982920948
H         2.12969844437287   14.73285281044666    0.93377509934510
H         3.57138498364581   13.97575010229509    0.26995762034119
C         3.35705896775051   16.80570729710856    2.26061331185680
H         3.99034619218995   17.24425019268431    3.02724321890215
H         2.38582691489413   16.59214042610674    2.69780848844029
H         3.21338820979242   17.52798897711533    1.46016667382267
C         4.59800273036433    9.44769027756940    2.48348232588867
H         4.05056862022235    8.86652580285861    1.74441023947975
H         4.12891240973496    9.30397600020297    3.45280472072674
H         5.61438193250771    9.06522198442214    2.54385614405943

