83
CSD_code = EDAVIR | q = 0 | S = 0 | Stoichiometry = C34H40AuClN6O | MND = 2
Au        4.88628606455549   -1.19328703264152    3.95773250819118
Cl        6.77718307131821    0.05720791940945    3.94328725467718
N         2.09870074919797   -1.94965937659253    3.15879101124254
C         3.08749463429283   -2.07072063895364    4.06528755174856
N         2.55366400154704   -2.73881101335535    5.09671438955464
C         1.24450601563811   -3.03856372858883    4.84648716324255
H         0.63216439571330   -3.56984743434420    5.54541064639227
C         0.95521169166039   -2.54924937364561    3.61834577801720
H         0.04838635867376   -2.56270381078016    3.05016933261503
C         3.22043959361584   -2.99357305020133    6.34024773171642
H         4.29489056275272   -3.03286712326667    6.16924917019083
H         2.87715868265630   -3.93762421291464    6.76176755867483
H         3.00688785475481   -2.17922620424085    7.03614060456643
C         3.67064685966770    1.68994531544410    5.35297054466700
H         4.23295774626706    0.76281267673348    5.14572224483598
C         1.23068024338838    2.07327514189738    5.68662115630878
H         1.28434770567511    3.10932563833349    5.42424207277344
N         2.32674625622904    1.29198902958085    5.67918882413603
N         2.05353240915262    0.04669337040586    6.05553451014963
C         0.75698980141687    0.02326949314527    6.30272844904332
H         0.28051786375102   -0.88210895580597    6.62579905390219
C         0.18122193540878    1.28069051187900    6.08572211478093
H        -0.84519096967467    1.56026168049306    6.20625647276020
N         4.29431957703604    2.32590692682950    6.48268353035957
N         3.65406137692771    3.23617617453722    7.21732190717749
C         4.51872198201071    3.62820497603952    8.13203394539295
H         4.23629233989167    4.36330622480798    8.85986718523162
C         5.74655076529973    2.96873725039754    7.98045540969053
H         6.62970577628646    3.08692111958399    8.57363309761972
C         5.56167244467837    2.13557445377831    6.90339129714385
H         6.21858138471350    1.45357659663505    6.40205041749173
C         2.20294749244703   -1.32541853826155    1.89566059318502
C         1.84807151992553   -2.04866776629348    0.76797973962446
H         1.53264651538682   -3.06935903868152    0.90848327476883
C         1.91723323622208   -1.48075079981406   -0.49480640285971
C         2.34477091822701   -0.16101901479487   -0.57692572285794
H         2.41177184305483    0.30251811040906   -1.54761731281476
C         3.84270988839889    3.99876211550759    1.77664098195058
H         3.91931131392024    4.55715047445754    0.85750884576184
C         4.15510850148740    4.62843516613383    2.97322939649329
C         4.07881952284476    3.87360960262635    4.13598953894383
H         4.32182561853723    4.31000736161036    5.08868768251626
C         3.69265385906513    2.54696462084117    4.10487717986723
C         3.14776921099789    2.03288394695074    0.36158562250299
C         3.44011978480354    2.67217070728373    1.70605309504072
C         3.35345250956481    1.95015802508966    2.88817692582345
C         2.62755764925550    0.00359368115312    1.78961613857539
C         2.69490800959299    0.59507171057609    0.53153247386492
O         2.93980803957979    0.64428921676958    2.94678108247559
C         1.55958785638927   -2.23739117117503   -1.76373473662121
C         1.10058755514547   -3.67007902373496   -1.48083707520693
H         1.88648780797189   -4.24418872178122   -0.99601054550212
H         0.85659237384958   -4.16324085256372   -2.41920254667791
H         0.21022516219228   -3.68066211644336   -0.85626598819513
C         0.42085330315406   -1.50255145662523   -2.48486097027795
H        -0.44999320440070   -1.42817302135670   -1.83703633998289
H         0.13704472459605   -2.04542056561623   -3.38351085559581
H         0.71578590820194   -0.49833831937853   -2.77522608299748
C         2.79698395165174   -2.29984824581186   -2.66987453772948
H         3.12579071263241   -1.30688831387065   -2.96270043572499
H         2.57111566426767   -2.86294262170324   -3.57255346830327
H         3.61768047516129   -2.79090700280790   -2.15186734015668
C         4.57833599385082    6.08857128865422    2.96901643858368
C         3.43837806824429    6.93868916857275    2.39004363405666
H         3.20423844450170    6.64880165006023    1.36930835713405
H         3.71944844506372    7.98949234780253    2.38889326957396
H         2.53989955389297    6.82259681098042    2.99238193482946
C         5.83659226368860    6.24109537611655    2.10301529635121
H         6.62844827121481    5.59690930167608    2.47798858810738
H         6.18586492624121    7.27099214369216    2.12905782563223
H         5.64309322030660    5.97522719041892    1.06747349947884
C         4.89871281330099    6.60787674596008    4.37289370651335
H         4.03243345649420    6.53606595275983    5.02627883143033
H         5.18927796901436    7.65485149666126    4.31390651640809
H         5.72421102389857    6.05463831405844    4.81395550890731
C         4.44214994175704    2.04386432182037   -0.46974382174025
H         4.78516442326927    3.06180797111222   -0.63164943448069
H         4.28663228181965    1.57540625053996   -1.43794710106162
H         5.22329092776669    1.49948799638024    0.05673060930048
C         2.03874554616277    2.82701298354811   -0.34916265607451
H         1.12519326790215    2.80352953119355    0.24198757093559
H         1.82594249135678    2.40745923413835   -1.32832291583849
H         2.33308977154551    3.86362323051362   -0.48363080221155

