69
CSD_code = EDAXEO | q = 0 | S = 0 | Stoichiometry = C27H34BN3O3Zn | MND = 4
Zn        2.25783635796563    1.24987153306038    4.04556489049904
B         2.25455220648679    4.28261407819839    3.77444267703903
C         3.94372882100198    1.03791812029060    0.76650217276542
H         4.78026122257840    1.61046356879872    1.16142475792698
H         4.15128362271570    0.77221322054087   -0.26749161790145
H         3.83863316727128    0.12918585552636    1.35492838797529
C         2.65480864867331    1.85362917209978    0.85617805498002
C         1.47620755067611    1.05192642713114    0.30860884709087
H         1.38807937725433    0.11763318044149    0.85657200008320
H         1.62881763516402    0.83259117816772   -0.74569509747083
H         0.55141754721430    1.61306653601162    0.42446896042362
C         2.78715464534521    3.24370340751660    0.18391678035218
H         3.76201844384669    3.40007307221340   -0.28547211201822
H         2.00060183206730    3.43519101599079   -0.55159583901392
C         2.42706755077132    3.49133746832597    2.37715869120336
C        -1.50932547269549    1.44067474263048    4.68299031910298
H        -1.69618822220603    1.90223160915395    3.71574662451522
H        -2.44740040613162    1.36588581663301    5.22827786588865
H        -1.11179472714722    0.44226360060847    4.52159092568862
C        -0.50080857461413    2.26659835196299    5.47814935503726
C        -0.16804764803597    1.57508092968554    6.79949408992468
H         0.27352929914100    0.60179432013808    6.59753781891056
H        -1.06936867747956    1.44229186123362    7.39344038022916
H         0.54668295867396    2.16812612416041    7.36607649564775
C        -0.96260189264084    3.73205932711574    5.67942101229499
H        -1.92007218384002    3.94477401553814    5.19536868464605
H        -1.02221124716822    4.02019321712111    6.73222767838778
C         0.95077782091498    3.69068485272925    4.52254939394999
C         5.86942015941239    1.47700361093729    5.06756371296403
H         5.44810747897208    0.51289378141861    4.79407888973741
H         6.73254033388443    1.32140072202895    5.71073986677025
H         6.19061753954541    1.97937121858111    4.15756742872508
C         4.81260885768940    2.31227130235503    5.78829989141662
C         4.36814923672609    1.62958844518624    7.08094561871734
H         3.62408752311956    2.23773266318333    7.59103885002535
H         5.21888617907279    1.48141025377412    7.74220326354088
H         3.92112275778726    0.66573943384146    6.85093104103003
C         5.27666332177647    3.76980546252271    6.02635179299885
H         5.22640690511674    4.06758821137871    7.07726118594144
H         6.28358894322465    3.96388943796292    5.64644420754824
C         3.47639618021939    3.75271306927507    4.69156408964745
C         2.09861216881536    5.85768482871271    3.49296312661472
C         3.00987676796503    6.83872563272761    3.86988668147366
H         3.89659068878583    6.55703010088785    4.41609132995195
C         2.81102666503924    8.17500617573571    3.56390605346952
H         3.54086059731379    8.91192447411599    3.87224141472628
C         1.68607979413623    8.57088687045447    2.86455527732301
H         1.52806093818016    9.61335408241160    2.62441125792207
C         0.76476088619737    7.61455189426289    2.47340115247460
H        -0.11901185626026    7.91000443452350    1.92351229100493
C         0.97508650492823    6.28452164650878    2.78377900975346
H         0.24493377310807    5.55209029420960    2.46551793687968
C         2.10364391831079   -0.74423799677636    4.12033942505285
C         1.04100104560770   -1.36347564729699    3.45384496254503
H         0.32846250876392   -0.75254745290577    2.91310613949263
C         0.85643415216168   -2.73641347309129    3.45316894251515
H         0.01838964974406   -3.16773238187863    2.92230390327670
C         1.74131052386758   -3.55637645086903    4.12955565717859
H         1.60340826666200   -4.62834025219545    4.13411251307853
C         2.80518726880192   -2.98180762043863    4.79988421107853
H         3.50771184821738   -3.60713376212966    5.33407365976222
C         2.97548516485859   -1.60632819561051    4.79051239275898
H         3.82317623964993   -1.19946868346833    5.32790332433356
N         2.40878904777452    2.21809060752667    2.24827505209519
N         0.72300106725029    2.44389771592410    4.70249336054423
N         3.65994106747616    2.50408915371898    4.91480122755006
O         2.64305762198590    4.17361255813979    1.25393997805374
O         0.04794563424220    4.51529313234106    5.05023098340210
O         4.35154297406686    4.56271409898433    5.28561669846616

