65
CSD_code = EDAYOY | q = 0 | S = 0 | Stoichiometry = C24H22F6FeN4O6S2 | MND = 6
Fe        7.48287358804193   12.97750680481435   18.46603688847318
N         9.07986346573332   12.07154983719385   18.33407003249162
C        10.23054325782122   12.60006329813423   17.98310840394547
H        10.16835231754032   13.60739075182735   17.60881545176724
C        11.44577229476394   11.91368042380018   18.07555822808758
H        12.35417250332448   12.41380478422173   17.78212059495129
C        11.46155644999490   10.62332161705564   18.53884202168177
H        12.37973344688658   10.06110627012669   18.61575759746566
C        10.24781877632238   10.03394378932816   18.95108941874928
C         9.07427767867885   10.81898593844081   18.84852550041439
C         7.85311202157880   10.32920935019069   19.34623471118198
C         7.79071245322439    9.06731050158147   19.88180542505572
H         6.86886718620034    8.68189174665025   20.28964923427121
C         8.94078423346904    8.26730336032099   19.93956546530547
H         8.86857384106748    7.27989525832774   20.36936023811402
C        10.14496895515834    8.73789387379770   19.49372542759852
H        11.03684073229842    8.13528645431524   19.57477698487950
N         6.73727548287794   11.24313616413161   19.28764262604689
C         5.74849038411545   10.78099869242873   18.30512674819341
H         4.86334519290517   11.41271948846549   18.39295252229880
H         5.45727159410535    9.73941092433136   18.49537578001462
C         6.33573712824708   10.91814297953084   16.91025398727729
H         7.23375873878242   10.30195947406237   16.83645856468078
H         5.61382032731394   10.58312516323837   16.15395107903785
N         6.72515958722456   12.31517130017468   16.69666650114869
C         5.56169625622471   13.13830520491395   16.46386104579272
C         4.85649193134286   13.16523129348472   15.28441943163930
H         5.16089752478861   12.56727513177535   14.43927114949481
C         3.72653428644237   13.98476777290369   15.15736165116816
H         3.19717668634712   14.00019991879755   14.21692015307837
C         3.29625767827137   14.75608107196367   16.20294161792786
H         2.42689500740896   15.38726291818211   16.10049864376027
C         3.99155175242024   14.74992259199352   17.42736200071464
C         5.14323006167639   13.93491045129025   17.54396212146893
N         5.89526137006944   13.89197634445281   18.66842290161360
C         5.52690455903443   14.62120329284919   19.69829348638216
H         6.16985833962430   14.56693370674207   20.56185593619482
C         4.39702556962955   15.44608506019994   19.68055887724212
H         4.16437733056422   16.02955281417398   20.55645059984968
C         3.62774679492661   15.52262563461938   18.54933037816055
H         2.76746259327349   16.17168430737036   18.49284014422221
C         6.10272306720320   11.39252142482592   20.59537373505555
H         5.57933929301870   10.48133507354053   20.89931734097230
H         5.39006890017550   12.21156805425343   20.55008263950134
H         6.85915616972216   11.63509535975107   21.33505693800001
C         7.68282215600583   12.42530397198142   15.59882148363316
H         7.29274555952674   12.00517483815448   14.66842110189317
H         8.59219482396714   11.89895901482304   15.87481711655272
H         7.92702037395362   13.47479748138599   15.46339552105317
S         7.90741196171694   15.96769899418050   17.45312291221514
O         8.19138750047225   14.52480960209379   17.46577732659950
O         6.52257555488759   16.31179516827289   17.60384729824212
O         8.60700249355892   16.60135949156898   16.37460716413956
C         8.74680131047759   16.58548458943066   18.99445274847924
F         9.06920468986141   17.87682427050354   18.88710094099083
F         9.87655669615948   15.90443051939562   19.18115888700324
F         7.97392448085068   16.46140768986318   20.07060874812344
S         8.68385955301524   13.22861268802710   21.37061344477238
O         8.23836420414568   13.81787596124732   20.10678031263812
O         9.13237041395977   11.86588424283176   21.25500105663988
O         7.79955393155935   13.50315495790230   22.46557731849083
C        10.26845028192682   14.14993623864295   21.72655254172695
F        10.82648581376604   13.68573780807667   22.84901845481336
F        10.12033337199981   15.46237669829042   21.86549463924795
F        11.13169801835079   13.92213009874775   20.73228075736729

