68
CSD_code = EDAYUE | q = 0 | S = 0 | Stoichiometry = C25H24F6FeN4O6S2 | MND = 6
Fe       10.98878358095982    5.92779576769676    4.85351620873852
N        12.49963490279983    5.80851791799167    5.87886322879009
C        13.71772198796643    6.20757483767760    5.56884315548901
H        13.84484016829218    6.59904006480415    4.57480433931747
C        14.80439856454288    6.14727437556379    6.44348655066476
H        15.76343562816470    6.51387892046986    6.11477283987099
C        14.63364426026797    5.62820465427484    7.69982339774681
H        15.44995162669682    5.55977679974634    8.40183789467507
C        13.34489809521164    5.20117770855963    8.08132356314761
C        12.29546469611367    5.33563378965547    7.13799411554073
C        10.97997699241926    5.00677136052808    7.50629191885717
C        10.72502002717803    4.51275689489607    8.76472273627510
H         9.71735661438744    4.27720387148959    9.06952457763927
C        11.76669943399029    4.33290183418297    9.68223731007755
H        11.54116328367072    3.94272359359937   10.66300074471165
C        13.04971816944411    4.67749932666930    9.35457915977644
H        13.84979851494144    4.57251928127570   10.07139049309649
N         9.95877476798115    5.29752792280458    6.53594654879695
C         9.11976488793273    4.13646413904212    6.24398965148771
H         8.39905755464354    4.46463175229694    5.49499850893147
H         8.57146088070876    3.83462630177509    7.14553050457552
C         9.90515822360014    2.94378282294696    5.71935305500886
H         9.32241279841001    2.03822765461927    5.89858253399334
H        10.84379242240257    2.84863965764191    6.26605319496077
C        10.15258703911015    3.04700491036526    4.22292452926937
H        10.44547876127075    2.06033987803719    3.83891484022155
H         9.22403592904963    3.35876941923215    3.74458997931661
N        11.16622568634083    4.04095619380091    3.87900596479039
C        11.04138152262717    4.43999188897126    2.49828839921462
C        10.60599717290380    3.62724770967841    1.48043192031747
H        10.27373701097755    2.61879657152319    1.66791344337190
C        10.57555818837392    4.10046577832637    0.15956587962877
H        10.21108239461400    3.44626724738211   -0.61733452816283
C        11.00640028521287    5.36029477722693   -0.14734493242756
H        10.99195944895618    5.71793370547420   -1.16508116309062
C        11.46458300083511    6.22038985789879    0.87033574107860
C        11.45146835609378    5.75356606954789    2.20615040321401
N        11.80120691819641    6.53051205095510    3.25523279276008
C        12.24560111399989    7.73833776173504    3.00354989533788
H        12.52089029506025    8.32085179717820    3.85944476407041
C        12.34018721325819    8.27728865004005    1.71570748202905
H        12.69911925422297    9.28625037185594    1.59754499590178
C        11.92246996482016    7.53450877818575    0.64490459430858
H        11.92828382411216    7.93306342985042   -0.35803158901920
C         9.07529191742926    6.33883098105898    7.07696910545155
H         8.38098735915287    5.91864866302497    7.81105130316462
H         8.51271295845306    6.80024995063988    6.26885565010005
H         9.66268283317842    7.11095525744879    7.56001639111955
C        12.51148144880433    3.49604776043706    4.06965947714801
H        12.65913911061402    2.59745672830643    3.45833719835116
H        12.66641074559101    3.24344803355606    5.11519560081561
H        13.24700398034021    4.24164786789693    3.78262779851294
S         8.80102722485394    7.43074168545602    3.64962623853014
O         9.28436378536217    6.06398057411321    3.93001351869199
O         7.97388540387761    7.98699093324399    4.66836005323292
O         9.65570932315320    8.25714188510095    2.86173150795660
C         7.54223476025820    6.82806404751217    2.35191098512434
F         6.74838050104547    7.75304294280096    1.80705682088779
F         8.20850056072422    6.23773018301420    1.34013353682190
F         6.74528183160234    5.88041217146461    2.87617341012410
S        10.98831594514935    8.63170295805764    6.51561569841224
O        10.70394660953205    7.84277206006330    5.31042824140083
O        11.77069992598165    7.90710305275933    7.48425211042823
O         9.92094664131767    9.42603821278356    7.01895446129222
C        12.24844092706335    9.90391200040079    5.91837945178611
F        12.47666636156652   10.80714918902891    6.87076110786346
F        11.91060368740869   10.56047346152841    4.80788722898301
F        13.42820469477740    9.29987130283120    5.66792345950130

