75
CSD_code = EDEHIE | q = 0 | S = 0 | Stoichiometry = C35H31ClN4O2PRh | MND = 8
Rh        0.26017546167544    3.71677428059900    4.13653091790280
Cl        1.16365703971299    3.95502589768908    1.99235858657535
P        -0.98879341349409    1.96068444188769    3.38955537348270
O        -1.05548087935482   -0.66054665204281    1.74453533752490
O         1.67816087610572    2.21560109212248    4.24043198404758
N         6.02802166227172   -0.55180339206572    3.21669576202137
N         3.91868491620154    1.55091158207499    6.09682832467139
N         6.11962140126969    3.80953581944650    3.86976709071902
N         4.86736468493011    1.79581415466352    0.31015369108134
C        -1.21046444247997    4.92233816841616    5.19893220620666
C        -0.35393644968322    4.26004992186249    6.14887533960152
C         0.97814847338831    4.77783583256257    5.98012967576543
C         0.97005709272058    5.66820613877952    4.87610085292410
C        -0.39087660076817    5.76123166237773    4.38791034287087
C        -2.70590609150958    4.88772703259307    5.18422605869076
C        -0.78620023354582    3.40799337969899    7.29896513272873
C         2.13303749978772    4.43524814464781    6.86115587468155
C         2.10046930271840    6.51182564761656    4.37989187820086
C        -0.85691208062664    6.74247930142808    3.36007071146690
C        -2.17584747019388    2.15494720530890    2.02376352843175
C        -2.09676551261936    3.28968323246984    1.22381979256297
C        -2.99383898901674    3.47391878308566    0.18603170037393
C        -3.97965619874017    2.53216019684854   -0.05343899648228
C        -4.06914559570577    1.40595561033150    0.75031229846892
C        -3.17669187240105    1.21562218194867    1.78808490598611
C        -1.93971261643021    1.10874738113867    4.68565497519833
C        -3.28269356050671    1.39741684252897    4.91479441806063
C        -3.94901410271671    0.80624450354391    5.97303511550844
C        -3.28058658486770   -0.06630777347223    6.81728147665897
C        -1.94007256189009   -0.34489425363890    6.60329363453198
C        -1.26982134187864    0.24439931330980    5.54717266802507
C         0.31638327803326    0.79335331575443    2.93344315629451
C         0.20362542101703   -0.34660826818725    2.13752250691815
C         1.34853552639704   -1.06818003493716    1.81624342615839
C         2.58881691266541   -0.64812758756935    2.27530561875314
C         2.70623881111843    0.46034153497418    3.08425818446468
C         1.55995840404825    1.19700487076853    3.45172989221165
C        -1.23733558551572   -1.72196306983830    0.83635490230511
C         4.02360245437478    1.05728636858857    3.54884320318661
C         4.26601054450335    2.39122867514437    2.75522980890529
C         5.14443766401558    0.15670495519411    3.35994828883443
C         3.94326544435952    1.35712898711749    4.97120219973497
C         5.30764172597347    3.18550231179461    3.36452393132252
C         4.60011830755165    2.07797776415106    1.38325523225596
H        -3.08587237237034    5.76831346643497    5.70547623767775
H        -3.09513775521944    4.90084981850669    4.16749936233107
H        -3.08151782265130    4.00223040414902    5.69058439171047
H        -1.71841603053862    2.89033304905107    7.08431136874295
H        -0.02523489675242    2.66615490396890    7.53096650485353
H        -0.93508007153101    4.03421813361083    8.18101849164489
H         2.45423125177234    3.40454176736210    6.70491575762283
H         2.98163826297031    5.08477359311717    6.66392099245593
H         1.83961065672263    4.54335805494005    7.90498550167428
H         3.05739051898586    6.13914664758627    4.73677866743479
H         2.12292274912343    6.52061928346994    3.29119085956892
H         1.97009923124153    7.53872827237139    4.72615147953063
H        -0.18339060884312    6.75660227661489    2.50488484996141
H        -1.85900934301161    6.50262886056542    3.01255313857440
H        -0.87047717611338    7.74288748507638    3.79613581587965
H        -1.32325323910302    4.02167831158545    1.41003114551454
H        -2.92164890710669    4.35391699382744   -0.43574478388257
H        -4.67976481549858    2.67399149473698   -0.86351864101915
H        -4.84135402560601    0.67265234549295    0.56700244757538
H        -3.24715931312766    0.33700495014678    2.41087586256189
H        -3.80614997799474    2.07531249991088    4.25472399640227
H        -4.99302832701541    1.02810918042865    6.14130391916918
H        -3.80385851928368   -0.52576248400197    7.64247721656479
H        -1.41608243284579   -1.02027215335294    7.26318057547812
H        -0.22093604745507    0.03874108516376    5.38160721745774
H         1.29532699107624   -1.94316146829293    1.19084295200066
H         3.47313029577331   -1.19693867556572    1.98517396316877
H        -2.30309944572937   -1.73843381620370    0.61357106666335
H        -0.67726603375286   -1.55603128784762   -0.08813905532855
H        -0.94341937458426   -2.67998800519758    1.27629455326425
H         3.32902585757268    2.97761951167300    2.76726313495493

