54
CSD_code = EDEKUV | q = 0 | S = 0 | Stoichiometry = C27H23N3Pd | MND = 4
Pd        2.04903340033149    5.31518402305252    1.16314293227689
N         2.53546241092186    2.83712139013080    2.51710190851277
N         2.04335074063862    7.46594332154625    1.00899390778010
N         0.84242249746749    5.62319737679293   -0.59761256333774
C         3.36412877166070    5.09606914969423    2.71028542452321
C         4.71530516549451    5.45887908624670    2.07237417957889
C         5.80703158559703    5.46417199433074    3.15722982358489
C         6.00757606745998    3.96587897479765    3.46137528977637
C         4.97449950443024    3.28908482842372    2.55530909936272
C         5.03281063789177    4.16871275460611    1.30824828774195
C         3.57565719890599    3.61701518437121    3.12130158749526
C         2.18339657335343    1.54018638791121    2.73606799746630
C         2.72987782353672    0.57019210217065    3.56701920131196
C         2.14034786237957   -0.67646305405368    3.57432414936212
C         1.03071339559835   -0.95964469814877    2.77289590815578
C         0.48143301401500   -0.00490305975897    1.94699089001981
C         1.05379116251811    1.26687607537675    1.91824733810481
C         0.76160920288574    2.46509167251844    1.21301451206202
C         1.69059633586024    3.41179790146807    1.58841103036506
C         1.06939577734666    7.88066822699025    0.16271768106438
C         0.46499916132137    6.91524506134073   -0.71116665961526
C        -0.49253103389387    7.33672385689438   -1.66303538260126
C        -1.02572580894907    6.36714988371893   -2.52626308449823
C        -0.59346981720284    5.06588726957001   -2.41963134354727
C         0.34113041517675    4.73659602023230   -1.43454124467677
C        -0.88289087983958    8.70500159722316   -1.70378222197260
C        -0.34458533473446    9.60869223469337   -0.85131095290137
C         0.64793850489754    9.22865038824976    0.09685108118851
C         1.24055316862662   10.14646210405127    0.97765101706896
C         2.20247350505511    9.69887687065913    1.85428794550007
C         2.57858695358733    8.35637051537364    1.82829965749973
H         3.12450832430638    5.72678557829503    3.58344827935232
H         4.70832754969725    6.37280914480435    1.46501354263454
H         5.49354323651659    6.02314630034913    4.03916484885790
H         6.72604853462754    5.91664188989497    2.78107079716983
H         7.01550140205412    3.64276646374938    3.19925695145653
H         5.84171877964606    3.72967090706630    4.51223120108454
H         5.13680819057899    2.22247352428055    2.40717150666872
H         4.25529318683204    3.92545442693085    0.56753831624621
H         6.01500885519223    4.17141209863014    0.83663795856441
H         3.54882964177425    3.46418277632139    4.20901944502280
H         3.58762546001401    0.78503706977244    4.18858216315516
H         2.54145953581722   -1.45284307279736    4.21057834585037
H         0.60016027804130   -1.95084670750809    2.80811148223483
H        -0.37812387956063   -0.23199598924247    1.33161259883829
H        -0.05956461467350    2.58922657573974    0.52796033455184
H        -1.76284681144701    6.65573017050861   -3.26146597567689
H        -0.97264314341538    4.29770575071718   -3.07491086020878
H         0.69266045130083    3.71813966746680   -1.32261867824484
H        -1.62580893966824    9.00080131279535   -2.42995721972639
H        -0.65099392853458   10.64426539461119   -0.87521292190153
H         0.93863036355707   11.18306307529194    0.95427425257898
H         2.67874291518045   10.37262382083002    2.54907280187066
H         3.35559664983182    7.99953438100858    2.49292343296752

