62
CSD_code = EDEXIX | q = 0 | S = 0 | Stoichiometry = C18H36AgF3O2Se2 | MND = 4
C         5.00838873551349    5.51085132925925    6.83658919882088
C         5.25279852744465    7.01679950046673    6.81588299574338
C         6.32140113914639    4.75923236370225    6.69753382005394
C         4.25876252561788    5.10700152693282    8.09615191486587
C         3.08151845828096    3.32924988096282    5.11098873226135
C         2.68084514764130    3.19605953359162    3.64687216161513
C         1.85539217114167    3.25878934178614    6.00966631132496
C         4.11935763726527    2.29093762529371    5.48648028316323
C         5.20885216104533    8.24635772664788    2.11784007344378
C         4.31473099630731    8.70697864471627    3.26494058547775
C         4.52043609826768    7.15286091838333    1.31847211566490
C         5.60536901690601    9.42219576745489    1.23920286283225
C         8.36871557259960    7.07249740004446    1.81824081266521
C         9.11778146479051    8.35423642691376    1.48301852612564
C         7.86962384072007    6.36351072025308    0.57435427517009
C         9.24262703973952    6.14494151529151    2.65491721290044
C         6.46023694812227    2.59616680266619    2.32670443450603
C         6.64713623280007    1.15307760612558    1.76810527802964
Ag        5.96613082627751    5.00724217074537    3.38761238892456
Se        6.84762578236399    7.52667882510246    3.08580082499405
Se        3.83085750873897    5.21548079772440    5.20300487567599
O         6.92276864563381    2.81113267260241    3.45126201466686
O         5.83293027600599    3.38074767837037    1.61057563245470
F         7.72335585475137    0.53252321387211    2.26966235321040
F         5.58197665953725    0.38544094872564    2.07637334833639
F         6.76932256599475    1.12365502070802    0.43377940044986
H         4.03081684843289    7.86037793763127    3.89514800186240
H         4.82720799183414    9.44429879570761    3.88282027726929
H         3.40642404175325    9.15780287813732    2.86932718323970
H         6.21824397456837    9.10123560462416    0.39960474139162
H         6.15535447307484   10.16509269636780    1.81478571082162
H         4.71020181392465    9.89523730908979    0.83710147907847
H         9.44584436480966    8.85302428320943    2.39410125389630
H         9.99639253231099    8.11990984759145    0.88333947086608
H         8.49543559208495    9.04368213097743    0.91736499874998
H         7.24468674873441    5.50479248516416    0.83049735819765
H         8.72298513356055    5.99543322563442    0.00508174078294
H         7.30692228823057    7.03536932227385   -0.07093581316534
H         8.71561782089978    5.21338279128622    2.88402946391630
H         9.52612414747235    6.62442632640219    3.59387280393128
H        10.15110126305399    5.89569641249387    2.10904828668872
H         3.55689312630295    3.24131871990170    2.99651669714432
H         1.99343134179299    3.99497316230709    3.36162352547116
H         2.18622835519552    2.24048070343866    3.48169283535238
H         2.11919384822132    3.39442612319609    7.05587148301190
H         1.13449712664098    4.02671372654966    5.73230284260534
H         1.38014503244725    2.28462948901239    5.90252311764968
H         4.34098185129677    2.31298663420492    6.55187238924368
H         5.04313211673357    2.43302883015678    4.92559622572164
H         3.73632758202355    1.29944062576183    5.24650504636179
H         5.11280661355727    6.83587450642352    0.46476928737222
H         3.56638743733111    7.52493152240459    0.94610431304295
H         4.31729070739411    6.27676298538019    1.94759168937628
H         6.80749016338015    4.99681518098808    5.74098535426320
H         6.99589197417491    5.05365022401667    7.50129846441922
H         6.18171562427259    3.68329926785562    6.75158204767927
H         3.28979308185478    5.60120014952691    8.14248296369611
H         4.83477109040916    5.39962351153447    8.97333632065117
H         4.10882862242225    4.03062400107893    8.13962342047190
H         4.31049493394625    7.56113444805106    6.86912924534765
H         5.86859336384915    7.30502808995226    7.66581182881012
H         5.77280513931719    7.31065009333074    5.90046151139092

