77
CSD_code = EDEZOC | q = 1 | S = 0 | Stoichiometry = C38H35NOPPd(1+) | MND = 5
Pd        8.78926098241872   15.78401588356371   15.30652148607970
P         8.72458256874353   16.72940312311129   17.38487580667788
O         4.70599359558017   14.32853649261853   15.23423149842376
N         6.77156130824338   15.04378903800030   15.61617738999792
C        10.79904093142946   16.03694621066177   14.81022468154143
C        10.10096826316316   15.64947769500635   13.63058743805426
C         9.37442926434344   14.46126256563737   13.68331308068010
C        11.32826111946633   17.39442297853206   14.98676234022773
C        10.52099425072098   18.49737744617524   14.69427394291595
C        10.97771831109619   19.78059793650379   14.91553216215163
C        12.25057613112549   19.98449483134748   15.42739734756615
C        13.05892281163242   18.89957401932963   15.72025731973908
C        12.60123092859256   17.61199803108095   15.50836205236801
C         8.40686302226138   13.99905525519718   12.69407949523637
C         8.24968644938092   14.59165968888079   11.43874066324015
C         7.28519925062001   14.13212086459052   10.56377914587220
C         6.45280867754989   13.08433364336435   10.92265473250552
C         6.60320820672409   12.47948673663247   12.16017911377525
C         7.57563508648956   12.92514020051662   13.03208424765629
C         5.76110945678299   15.03609732488201   14.82455523942436
C         5.02968846559226   13.75401825976704   16.49707275950251
C         6.44992600671926   14.28736758768380   16.81578962710651
C         5.67789193363154   15.73069613032974   13.54609470958734
C         4.64618853761784   15.42405687813595   12.65979210768777
C         4.55729031399556   16.08392456939398   11.44866315796964
C         5.48635011927772   17.05554695388293   11.11477902606437
C         6.51339666502697   17.36774623294660   11.99367774435316
C         6.61497037921377   16.70872202937468   13.20294451060973
C         6.48141654714559   15.17177022314783   18.07170680609394
C         7.89317360490129   15.53726700802451   18.53283720845571
C         7.79120388629224   18.25497417310536   17.67492723391275
C         7.16755545551354   18.86114012749192   16.59044224451675
C         6.42623445700121   20.01543491628271   16.76738671490635
C         6.30843168590598   20.56938240771992   18.03173352292618
C         6.92876150216698   19.96878802747824   19.11706910251185
C         7.66804080311801   18.81321926920783   18.94466247710325
C        10.35127557197161   16.96138068030105   18.15459507850861
C        10.85667925621029   18.20451071061375   18.51317117974849
C        12.14302312477521   18.30384572387224   19.01486692482251
C        12.93010136392411   17.17304106005307   19.15021692596873
C        12.43957563855361   15.93403709322670   18.76576883584537
C        11.15958435999624   15.83019296829160   18.25857599572531
H        11.34585764533345   15.25294461174558   15.34948578184999
H         9.96699612243466   16.36008176543995   12.81834098269437
H         9.71977137306086   13.68262083549381   14.38383910081492
H         9.51226707696883   18.33527824276963   14.31034782043433
H        10.34221855481077   20.62537629851610   14.69599104059599
H        12.60693717183823   20.98784696384198   15.60164262144413
H        14.04862930824853   19.05551639010017   16.12109635579411
H        13.23291753648830   16.76815053853111   15.74435953239518
H         8.89701841335734   15.40066297342760   11.13568030170316
H         7.18303507335220   14.59274508091409    9.59309524480155
H         5.69873990589303   12.73240470622682   10.23611671300072
H         5.96641248686031   11.65365955830837   12.43964155328050
H         7.69665459380407   12.44560430218444   13.99551610879497
H         4.99098883520148   12.66617970201971   16.40276104015357
H         4.28323133161128   14.07945886749195   17.22546266910022
H         7.17535423186255   13.47001157628581   16.93396198600175
H         3.92615753246575   14.66816777897415   12.93023123345754
H         3.75862124809956   15.84240645788431   10.76488486717844
H         5.41090849760878   17.57371994136498   10.17131594122981
H         7.23040377391396   18.13162521925101   11.73187750417716
H         7.41765843766676   16.96583439173083   13.90762941280346
H         5.90904729832313   16.08430726296546   17.87662201429578
H         5.98375954002389   14.62275999799253   18.87464489019283
H         8.50930050282502   14.63518969369436   18.60090018955573
H         7.84767593908314   15.99300038585952   19.52654060966906
H         7.26868199373718   18.41066884011665   15.60761269998768
H         5.94153470232045   20.48265185677013   15.92356720517414
H         5.73277091556497   21.47097694527069   18.17350411544555
H         6.83527587680266   20.40387257800062   20.10046936778416
H         8.15604314374847   18.34961806895030   19.79069743629419
H        10.25022676723703   19.09049933403825   18.39453967203044
H        12.53216031929470   19.26987412896952   19.29777530080653
H        13.93100574915434   17.25589972251317   19.54475857316437
H        13.05984232574317   15.05485845851832   18.85694748879344
H        10.77568548361812   14.86897352617527   17.92847954625237

