71
CSD_code = EDIBOL | q = 0 | S = 0 | Stoichiometry = C28H38FeN4 | MND = 4
Fe        2.23167605054676    4.48885896246897    7.47662572598895
N         2.73465815853071    7.26039394173482    7.39738889852991
N         2.04129208864069    6.91327808155689    9.39698912008374
N         1.99113225328097    2.34257865627705    9.50272478130256
N         0.15410002270062    3.44581702647455    9.44571209316806
C         2.22909916225538    6.28195351451317    8.20535192218479
C         2.87857200119798    8.44208902525854    8.07132842431730
H         3.26934438847877    9.32600161035873    7.60970040278226
C         2.43913658594721    8.22716318254915    9.32839541362155
H         2.37442953670495    8.88836609121244   10.16822663145056
C         3.03167276225098    7.08318054417437    6.00591069165325
H         2.33735073623339    6.34459691373248    5.59400504820556
H         4.05859324447347    6.73486962662558    5.86876510962294
H         2.90267916745604    8.02868621008249    5.47870370160036
C         1.42829584933019    6.37669043102244   10.57644457721543
H         1.34332604465047    5.30218001027994   10.46069914536072
H         0.43436193626595    6.80960274975201   10.71953263770720
H         2.03495634990684    6.60296137402841   11.45436530339762
C         1.43072007951312    3.46965260606197    8.97215805042787
C         1.08637607491319    1.64776570207456   10.26207136572248
H         1.33700430570295    0.73238777315978   10.75850652431434
C        -0.07069784277941    2.34218224728337   10.22444279254907
H        -1.01855060912221    2.14551691644599   10.68240242927811
C         3.33589807006304    1.87763158878168    9.30929040620761
H         3.89274655539367    2.65037235661037    8.77528592560962
H         3.34378945085594    0.95257061250579    8.72844722785875
H         3.81001246847767    1.68893118390006   10.27355297566179
C        -0.87343221949469    4.40314860733657    9.15736853326690
H        -0.41327132347705    5.24510586917787    8.65493292898813
H        -1.36183329129150    4.72101135484291   10.08032865078043
H        -1.61993053468279    3.96793570532062    8.49104572480584
C         0.52601089420428    4.33923277154906    6.44920985550853
C         0.46066575340200    3.06791162939748    5.85092438788974
C        -0.47188550066478    2.74282578453410    4.87837021895033
H        -0.47719837861115    1.74537924245297    4.45360336432701
C        -1.39814840208242    3.67687064972311    4.44138787066072
C        -1.35145871210242    4.93683766850196    5.01118928437844
H        -2.06121406338882    5.68969691411556    4.68837735594775
C        -0.41892924125277    5.26683791485943    5.98932801009966
C         1.42160909625389    1.98296997678956    6.28824009610764
H         2.31259661823125    2.40190496050152    6.77362875154873
H         1.73876595543391    1.38471938391100    5.43353942176389
H         0.92983611154310    1.31349928490869    6.99710956134172
C        -2.39750073823646    3.33970567709045    3.37315816796082
H        -2.67519351236572    2.28800657484552    3.42009379157291
H        -1.97497317850316    3.53149003197035    2.38494944934447
H        -3.29594864125686    3.94537992359470    3.47741755115599
C        -0.49143859071673    6.67410664220561    6.52426480901448
H        -1.49300416008891    6.88813612661735    6.89791655557938
H        -0.27563606831967    7.39338084470776    5.73359726376771
H         0.22426515887523    6.81812340847625    7.32674987140409
C         4.20493937629213    4.55878615775891    7.85244858634674
C         4.88324447313034    4.41020130792743    6.62458786216320
C         6.25019848680000    4.61368881816026    6.50471792040525
H         6.72498490868340    4.48826101574821    5.53791107199793
C         7.02190264362191    4.97758460288204    7.59775881490223
C         6.38274862328040    5.09633026484495    8.81908678689526
H         6.96052148468816    5.35520324995880    9.69850331370019
C         5.01501211010632    4.88725294444375    8.94776763517061
C         4.15128627890023    3.95977577612079    5.37293840848269
H         4.27746199019222    2.88283050473113    5.24137577893225
H         4.57099962242575    4.44398540128530    4.49097616197928
H         3.07613097709073    4.17853858580864    5.39887092516779
C         8.49527706047928    5.22195940961995    7.44895643985957
H         8.97636328212340    4.38087643346581    6.94995171520741
H         8.96443467253469    5.36496166831892    8.42004125314258
H         8.67543604549012    6.11319876799141    6.84593086133831
C         4.43400241930622    4.98652328766350   10.33046516266486
H         5.03529017668482    4.41456803676722   11.03681863206326
H         3.41997070849420    4.60569081906783   10.32838238642992
H         4.42726673551007    6.02288706088523   10.66615148094526

