74
CSD_code = EDICOM | q = 0 | S = 0 | Stoichiometry = C29H42FeN2 | MND = 3
Fe        7.75264768883058    7.82821398159363   11.04639420572441
N         7.02338828892754    5.99626101629308    8.79744768690076
N         6.85301440647510    8.11345068949150    8.35958675336618
C         7.03206367904736    7.22564871218897    9.39117832744153
C         6.82462429787213    6.12273521925192    7.44349829811165
H         6.76291099932711    5.29102048139971    6.77490510748735
C         6.73203627779559    7.43823930745641    7.17095232189766
H         6.59201027333041    7.92308156612723    6.22789853340512
C         7.14207866917091    4.69651321304241    9.44902797543251
C         6.86223909924393    9.57164097905390    8.42087937730742
C         5.73820337420759    4.09740653070985    9.59042560976843
H         5.26589273131165    3.98253375811837    8.61699168106535
H         5.12284807739258    4.75257371664338   10.20189922032019
H         5.79222698097857    3.12287823355995   10.06725130477904
C         8.03601085655818    3.78543455978063    8.59668723838206
H         7.55559168933297    3.49355300403184    7.66684922132300
H         8.25978668371962    2.87700725776297    9.14920713936881
H         8.97287102082380    4.28750636595168    8.36519043988594
C         7.77088920620945    4.85454642539276   10.83068323936744
H         8.66674171432048    5.47643116130330   10.77794787940628
H         8.04441417970813    3.88061094860706   11.22603818780182
H         7.05576524868532    5.31811981759968   11.50219549823749
C         6.80415337786931   10.05747785342350    9.86707365965435
H         7.73366132928291    9.78940457536290   10.38858404366468
H         5.94728608549002    9.63891556795602   10.38883214902352
H         6.72425790635545   11.14074399117936    9.88019403568059
C         5.65126459793849   10.12090209155041    7.65529947939340
H         5.71785774239948    9.91560138826764    6.59036070155482
H         5.59538782358819   11.19833936700386    7.78339557172138
H         4.73441051846838    9.67920505325777    8.03706554864661
C         8.17107287762851   10.05993888395009    7.78582677299884
H         8.25536174765663    9.72774218413913    6.75364183242724
H         9.01692038743733    9.67003513199193    8.34807925834430
H         8.21389839731297   11.14531926505372    7.80310499588841
C         6.01789146838564    7.33822303915794   11.92202744452059
C         6.38031626105407    7.03814234278419   13.25048913781949
C         5.44093776892509    6.96921410949259   14.26871207275957
H         5.77039937194689    6.74647870574432   15.27627688446533
C         4.09258290577320    7.17040099288640   14.02105012287950
C         3.71577953736315    7.40628482491991   12.71250780602197
H         2.66619265877094    7.53766612619606   12.47872440037073
C         4.64675348612925    7.48095921047234   11.67942599338418
C         7.80949366138274    6.71418544146968   13.64940346676130
H         8.54337052246882    6.92359807413488   12.86331125547091
H         7.88077178842861    5.65673959199800   13.90605472483818
H         8.08667547789648    7.28447624199418   14.53421215595811
C         3.08206595143376    7.08932871849337   15.12734403120764
H         2.14970345597734    7.56906891060661   14.83710046057309
H         3.45854902834238    7.56985412344570   16.02888107032213
H         2.86752130485711    6.04697023338564   15.36861823536574
C         4.07095905416675    7.70626211927640   10.30536357128532
H         4.79101813144947    7.46156006824884    9.53481457183927
H         3.76158789751837    8.74563619500308   10.18386790981104
H         3.18639615659273    7.08538340507172   10.16436664696446
C         9.50871101398162    8.65234027329942   11.39728201252163
C        10.65633184458717    8.31150950498342   10.67799809994965
C        11.87611952858732    8.91827222958757   10.94920605131797
H        12.74794046879567    8.63396252221803   10.37235178037096
C        11.99438909101072    9.87946954682794   11.94004616947333
C        10.85537288920871   10.23488067107819   12.64955946956603
H        10.92232769565571   10.99328430973014   13.41990149323815
C         9.63257087893519    9.63785591988634   12.38310836446880
C        10.58700769256003    7.27374277485165    9.58566170051463
H         9.55353377395148    7.12326821480601    9.27083357009628
H        10.98797224008098    6.32246918281120    9.93906726413390
H        11.17622756531651    7.58076087318777    8.72254321199948
C        13.31221538192309   10.53037562004680   12.24434345590330
H        14.08582291405357   10.17853413395402   11.56528747339686
H        13.62098043607336   10.30531489946192   13.26556088542693
H        13.23514928849858   11.61373699955869   12.15187486549971
C         8.41548879499301   10.07510877199774   13.16138464573677
H         8.22161633153831   11.13519619881740   12.99606300284424
H         8.57250861500018    9.93218586064399   14.22982144182648
H         7.53055943169535    9.50666671898228   12.86055978332213

