103
CSD_code = EDICOL | q = 1 | S = 0 | Stoichiometry = C54H45CuP3(1+) | MND = 3
Cu        2.44479690182962   11.65143675998083   12.90403241472287
P         2.21875689683405   12.19956560567848   15.06846142523025
P         2.48013410110429   13.29517478200785   11.37256004404714
P         2.91848186483324    9.52132994254575   12.38215922528089
C         2.05385663039482    8.99806958115759   10.87225807253101
C         4.67102976967417    9.26856028735913   11.97475753908707
C         2.55436622832520    8.20588848615713   13.58329437464439
C         1.49640714792871   10.87080569684237   16.07906635715745
C         0.75484479300053    9.47227915389116   10.70071415680748
H         0.32028582356642   10.11396476262455   11.45991395317910
C         3.83454278537561   12.51982078590497   15.83145455197317
C         5.30719058069445   10.32157034852216   11.32130224899141
H         4.74539649277182   11.22190997675515   11.09592999681272
C         4.01442807674636   13.37732718718061   16.91191177530073
H         3.16593750903594   13.89262897490464   17.34034078680622
C         6.19693061471331   12.06157900677167   15.79762514307071
H         7.04445069954912   11.55232370082088   15.36302122558759
C         1.23074326950214   13.66199661406499   15.50111428518697
C         5.37871942513306    8.10964813908729   12.27486576085475
H         4.89000450336659    7.29268113951593   12.78694407042623
C         4.93219768551207   11.86756341069174   15.27580957909981
H         4.78531130819110   11.20918067091409   14.42456330912347
C         3.20373943721461    8.27718832156789   14.81528104647647
H         3.92174883237233    9.06702751505006   14.99709710531996
C         2.63518770821363    8.19706525535537    9.89667232581157
H         3.64664463112096    7.83797723719317   10.02265820524569
C        -0.03943476704727   13.56468070605332   16.05884270904393
H        -0.43110894681838   12.59960643442547   16.34932202373419
C         7.33797954684908    9.05650276741518   11.25424088370888
H         8.37652572667898    8.96980893630050   10.97378774333492
C         6.37188966634279   12.91569669476664   16.87508910053118
H         7.35879272196044   13.07284656503153   17.28280502200407
C         1.91139011743252    7.86602003686748    8.76476377666947
H         2.36111050082406    7.24346275082003    8.00585598000781
C         6.71057235810271    8.01039384513289   11.91216093581372
H         7.26068470756704    7.11034889285478   12.14205439970087
C         6.63529985010438   10.21406653901021   10.95707167744160
H         7.12147604825662   11.03099793161200   10.44515745683501
C         5.28298750990526   13.57071826084647   17.42864808593883
H         5.42287179885900   14.23541948426579   18.26778860813306
C         1.35182515628891    6.27470334670143   14.34060286466335
H         0.62896490596815    5.49380173080609   14.15774266414046
C         1.72685587570844   14.90645782744893   15.11304848690525
H         2.71221743240777   14.97354271955268   14.67070874262322
C         0.52397716861609   10.08194057478506   15.46848925373974
H         0.24459263245998   10.28652321134145   14.44045851622736
C         1.61654538353491    7.20699593214435   13.35220458128061
H         1.10185499777549    7.15467395503734   12.40307530050518
C         1.88099120472630   10.61025585183904   17.38858822232002
H         2.64398665285849   11.21356552992774   17.85998268091645
C         0.30748779738755    8.79662313987313   17.47465320069697
H        -0.15557015235059    7.99007249560397   18.02204800061648
C         0.03437743059732    9.13145953874316    9.57168375778884
H        -0.97375600002155    9.49627919135252    9.44239937627998
C        -0.79446982508043   14.70952381907408   16.24668513426549
H        -1.77664255460706   14.63450750442945   16.68881224290907
C         2.01095304881797    6.33774081310996   15.55661805864559
H         1.80272268490045    5.60549092834025   16.32145992687090
C         1.28322948902231    9.57189663651319   18.08041583923422
H         1.57893838659464    9.36799753916273   19.09857774633859
C         0.96569589519551   16.04282254662031   15.30191381262253
H         1.35569176614065   17.00457487065579   15.00443284962351
C        -0.07462338734505    9.05187719113028   16.16726091096780
H        -0.83183771229538    8.44525967974218   15.69398120317743
C        -0.29661161221034   15.94530410499084   15.86800668632658
H        -0.89198761162604   16.83362543484318   16.01342395186517
C         0.61512704081901    8.32816731338512    8.60232094542226
H         0.05628024886362    8.06507147970620    7.71721395116866
C         2.93853883033417    7.34068205598097   15.79386008921304
H         3.45085312738190    7.39347099074234   16.74257445903818
C         0.88796784849941   14.08828318658020   11.01066352381986
C         3.17857028138352   12.93934674396773    9.73239228846420
C         3.50227947504286   14.65845138439673   12.00886573740523
C         3.00585103732589   11.62206494567502    7.72912771548666
H         2.46581134137499   10.91152464950924    7.12163907632802
C        -0.06302696394284   14.07195203108192   12.02744658276008
H         0.16704137037327   13.57264648224804   12.96217030812795
C         2.48712459453245   12.01959522323686    8.94530596765449
H         1.54130897542504   11.62608236751658    9.29486713486747
C        -0.62587752142472   15.32264540780915    9.62103655584061
H        -0.85003800621158   15.80814783109021    8.68305234019846
C         0.60222283738704   14.71174395345115    9.80003170902508
H         1.33697530547590   14.71659028966358    9.00676851953294
C         4.22030485862633   12.13248732441026    7.29584544987793
H         4.62789753255623   11.82036144660143    6.34664236418701
C         5.09483805618989   16.60986938501103   13.16581219129068
H         5.70941141831841   17.37180343171246   13.62019554713199
C         4.39936578486667   13.44507172086023    9.30000396150493
H         4.94222903148577   14.15103442082173    9.91340325472910
C         4.63351454625629   14.29978690779099   12.74031868475138
H         4.88078549436558   13.25133789875419   12.85859560643636
C         3.17042092161929   16.00008734065155   11.86049918802905
H         2.28815414916526   16.28190855071676   11.30392668282018
C        -1.56553681090833   15.31728797333369   10.64037873503148
H        -2.52011589400274   15.79892026210818   10.49349137026685
C         4.91150954182080   13.04243196297604    8.07872066414584
H         5.85538690057530   13.44094577726509    7.73803275507590
C        -1.28458860390263   14.69167003751043   11.84491985131795
H        -2.01633302915782   14.68402392363987   12.63880952519049
C         3.97181605709249   16.96977939653542   12.43764282343627
H         3.71604311343121   18.01222666193003   12.32188314090914
C         5.42872635696925   15.27255501446067   13.31528247386156
H         6.29968114251084   14.98779492518503   13.88668743245710

