43
CSD_code = EDIDOM | q = 1 | S = 0 | Stoichiometry = C21H15MnN3O3(1+) | MND = 6
Mn       -1.06078577694728    1.97803172316854    7.64402710945896
N         0.25924593525752    2.11517961467011    8.98761225967319
N        -1.66937807471687    3.97679953772364    8.21072762220237
C        -2.35349745567931    1.97067182554134    6.40143796045367
N         0.06507363142319    3.11097173450369    6.39709930852590
O        -0.12342625297671   -0.57469849118289    6.53624931625853
C        -0.22762919595687    4.36286558762854    6.38551028872235
H         0.24081806390904    5.05720708727381    5.69088847878868
C         1.98263547443710    1.74495914522902    5.84385547545727
H         2.06258120881420    1.46237990853913    6.88534631294358
C         0.97686688264109    2.62630490305256    5.44468594002763
C        -1.17893479592642    4.86817479914059    7.34552945536141
C        -0.43556681877029    0.43058370530140    6.97729029793976
C         1.04414969393893    2.21426849420867    9.82338530006002
C        -2.15324075726464    0.94544225943748    8.63712445487521
C        -2.50943601830610    4.41188137713437    9.18135503827089
C        -1.53913482690808    6.23112409324085    7.35121477981103
H        -1.10903076772270    6.89190530166125    6.61577443999582
C         2.88916486720035    1.26830425047364    4.91763459134304
H         3.67192206076605    0.59671854402632    5.23391919557784
C         2.79142951850655    1.64490221515748    3.58655835125936
H         3.49241554606242    1.25851671696699    2.86384432251141
O        -3.17910660076577    1.95597195721361    5.61396534613279
C        -2.94285078064531    5.77385561525514    9.23347967043125
C         1.78656030131689    2.50984029100426    3.18388350528753
H         1.69936377744559    2.79442152259278    2.14697172672674
O        -2.84376308594525    0.17221462331394    9.12126052816865
C         0.88658777430349    3.00982101166414    4.10579863041342
H         0.08109795485773    3.65457197140969    3.78434442172553
C        -2.44048954791675    6.67626963881030    8.27566424945487
H        -2.76278171420894    7.70613022768763    8.29358432728773
C        -3.84324047470427    6.17759411646815   10.23923667132306
H        -4.16987642656808    7.20624877334644   10.25195004311733
C         2.02004210260535    2.31275913387287   10.85611415142169
H         2.72598487283725    3.11342012781392   10.63352559764651
H         2.56257522672553    1.36967984092003   10.93536165390300
H         1.53093879701292    2.52090885641076   11.80831139413992
C        -2.96576566316848    3.53384936221919   10.18665126592781
H        -2.60549971581112    2.51532999448665   10.18445304736170
C        -3.82883688607014    3.96073016096513   11.15761290580800
H        -4.16507399279504    3.27221747553071   11.91720703345923
C        -4.28505222658900    5.28879397866492   11.17943617927323
H        -4.97605583369797    5.60187698745479   11.94601735147215

