69
CSD_code = EDIDUT | q = 0 | S = 0 | Stoichiometry = C24H38FeN6 | MND = 4
N         1.69747867896924   -2.35133233483221   -4.06950781290601
C         2.26419949287124   -1.26687847862913   -4.67460699060423
H         2.39082818145760    1.94384009974663   -2.78786164640027
Fe        3.63711364834354    0.02227379435850   -3.91459882150989
N         1.57612256529905   -1.14498865209767   -5.84009091783685
C         0.69262328419839   -2.87768310824776   -4.84108334109377
H         0.11896020310695   -3.73434841414089   -4.55231168519895
N         2.92184113181370    1.64920000914662   -3.61617036501302
C         0.61413837713838   -2.11179545043438   -5.95096790786678
H        -0.04389706204848   -2.18873459486196   -6.79157306805358
C         1.78764779246370   -0.07891702814005   -6.79524581355098
H         2.71928563820204    0.40483112331715   -6.47655429404229
C         2.07987597535327   -2.85294143977198   -2.77031748453963
H         2.85059597241126   -2.15707452146891   -2.41147192367094
C         0.65627691658146    0.94206264296515   -6.69958569800958
H         0.85398575861562    1.77453572059625   -7.36837347444710
H         0.60445490796496    1.32775816654029   -5.68498117359380
H        -0.30217943064659    0.49671874193737   -6.96254722863924
C         1.94076406710762   -0.62740111491495   -8.21130114129667
H         2.26545955815039    0.17019393319195   -8.87337636742536
H         0.99918471270601   -1.02059626825542   -8.59013801012543
H         2.68469527898079   -1.42048947704560   -8.23360787019146
C         0.89367882741808   -2.82127144102111   -1.80774233655271
H         0.46121307907219   -1.82394559389894   -1.78409410028495
H         1.22023065140458   -3.08301677082985   -0.80471016357856
H         0.12417188513658   -3.52687501757317   -2.11254198699010
C         2.68168496732302   -4.25354401055996   -2.88167517225185
H         1.96075809289344   -4.95437166721547   -3.29703136173035
H         2.98057748934329   -4.61031778551920   -1.89953078393581
H         3.55888804336175   -4.23211475727825   -3.52368334764855
C         3.10081394304648    2.67580770369414   -4.48676307297819
C         2.55448799838320    3.95389080101918   -4.39052470399623
H         1.91570220708704    4.19948084830586   -3.54900277847376
C         2.81129329844541    4.89236827025414   -5.37182899466732
H         2.37466958828789    5.87918099770212   -5.30161815419024
H         5.12133319969152    0.94147407412115   -6.30252711562515
N         4.50570093681750    1.11866986958681   -5.50943964427876
C         3.97235881063914    2.34962253079647   -5.57472733834431
C         4.20198468990365    3.32292238495798   -6.56014007476173
H         4.84839000451185    3.08491803244523   -7.39730421405106
C         3.62861555179066    4.57160370054955   -6.45267860148095
H         3.81925579641597    5.31662985819291   -7.21426290348122
N         5.50860942609836   -2.22331042184180   -4.80293367284014
C         4.93571292397955   -1.38658974402476   -3.89608611402967
N         5.60080432282229   -1.65273409225018   -2.72716041981153
C         6.49900700779853   -2.97448818566399   -4.21789398591144
H         7.07580617433646   -3.69972882269812   -4.75436778948434
C         6.56476560574844   -2.61034887637293   -2.91921315742119
H         7.20814003632097   -2.96350502747486   -2.14018327618286
C         5.35900609605983   -0.86734380675332   -1.53821455286893
H         4.30622684622692   -0.52510703366056   -1.61479509283357
C         5.14675009039949   -2.25006272894081   -6.19915058542185
H         4.41100013982418   -1.44614706489164   -6.30800453865674
C         6.25439730930341    0.37335656330541   -1.54813278753932
H         6.05436997915862    0.99524976968195   -0.67995649586995
H         6.04687731986261    0.94836887571567   -2.45134842805245
H         7.30386061336440    0.08558817001731   -1.54151714649952
C         5.53595482878556   -1.69417756592577   -0.26855128852858
H         5.17405323403304   -1.13395675587791    0.58946397766600
H         6.58514652242052   -1.92664100228951   -0.10121278493716
H         4.97675154675130   -2.62521181942320   -0.33653989667770
C         6.36076896520158   -1.94682436371485   -7.07579192716591
H         6.82873635417102   -1.02258940003201   -6.74707486814308
H         6.05283072681163   -1.83142887780059   -8.11150092962867
H         7.09483999326302   -2.74814068249379   -7.02297567245680
C         4.50597508057402   -3.58811578747007   -6.56951476055822
H         5.19322178527973   -4.41167410729314   -6.38544431771778
H         4.23808552266828   -3.59570757203467   -7.62273593986772
H         3.60433683872292   -3.74697501647687   -5.98306366324983

