31
CSD_code = EDIGUT | q = 0 | S = 0 | Stoichiometry = C13H13CrIO3 | MND = 9
I        -1.57164602525573    0.32521140171473   10.99606467446101
Cr        0.18085861010873    3.46842965238478   15.11566128184879
O         2.60688093471886    3.95570643533748   16.76805392715110
O         1.43786742033318    5.78980157612876   13.74367808101408
O        -0.72373979032358    5.75498932849852   16.79185485067095
C         1.66966327151204    3.71981151997372   16.13512914046470
C         0.93397897720781    4.86795357433540   14.22954244999672
C        -0.41938431886500    4.84592696991563   16.14851231100774
C        -1.20169824539247    2.69305603338537   13.50229117287769
C        -1.85836092819314    2.57240456633493   14.72669513266870
C        -1.27734935592238    1.83670284770517   15.77908072683592
C        -0.02516386344874    1.25490531007339   15.59846990352005
C         0.64681320159434    1.38861560710634   14.36742607131809
C         0.07152470283101    2.10867954021541   13.31141223376071
C         0.76418955622266    2.11207699854255   11.96596879218937
C         0.37712687642183    3.29825521991731   11.08626329332837
C         0.55461522423373    0.75423847667063   11.27776374474639
C         1.27420863682257    0.62368913920256    9.95066153364218
H        -1.70259531822225    3.18857135268465   12.68203031039882
H        -2.86240991496017    2.96391211115349   14.83796485973384
H        -1.82900869845019    1.67663459729269   16.69681473872061
H         0.40515757974844    0.63373164560236   16.37523820335000
H         1.58755003099125    0.86895341840199   14.21718557174376
H         1.84567392823824    2.17752064466798   12.15552069624015
H         1.07565085942602    3.39802514212788   10.25950548014410
H         0.41354204110771    4.21743862740000   11.66690636872412
H        -0.62304813372114    3.18089330995107   10.67313890392551
H         0.88350491967748   -0.03830948145287   11.95360308905607
H         0.87557960629521    1.31255680571701    9.20993122332804
H         1.17604894938250   -0.38805071926340    9.56174736698500
H         2.33446926588082    0.83656834827476   10.08758386614790

