41
CSD_code = EDIGIH | q = 0 | S = 0 | Stoichiometry = C14H20B2Cl2N2Zr | MND = 14
Zr       11.88765053037534    9.66182601367647    7.31246270517097
Cl       13.96679147276735   10.56860714469562    8.00680009425106
Cl       11.56605006676689   11.66853388898262    6.09081185508768
N         9.03358921738517    7.68578769011570    8.21112710230265
N        11.51762670533508    6.12054479423560    7.48548795569911
C         9.64559473433569   10.22343900493649    8.17600012474288
C        10.35427579897166   11.25694999507537    8.79955337192098
C        11.40533862401590   11.01631141638587    9.69168984643839
C        11.81547531072667    9.70222427676450    9.97015037662771
C        11.17386181397497    8.58957451893737    9.42468474348975
C         7.80976919138631    7.84225567425765    7.45566854846010
C         9.29414774953031    6.30612076735025    8.56262577919382
C        10.16742560980676    5.59961152811773    7.50355401063781
C        12.40766649668778    5.38971243660610    8.36152893133284
C        10.96789135356935    7.99313715325240    5.73487638237775
C        11.47564093946526    8.89241995505785    4.79632217405632
C        12.84020251721331    9.21710203787848    4.73087179506872
C        13.74152388366211    8.68300108869331    5.65849797450550
C        13.34921209829439    7.78332593520007    6.65636161187228
B         9.89452092285075    8.76129399527668    8.57855027701769
B        11.91808698512971    7.22550761701120    6.67780658002094
H         8.81599823775865   10.55468784214014    7.54959641463098
H        10.06344250459611   12.29124984225129    8.62280634241254
H        11.89944361896987   11.84746858388533   10.18071736720505
H        12.63131854460234    9.56601126288688   10.67901262392924
H        11.53080029483644    7.62899079408729    9.78994217644013
H         6.93553195374860    7.68046922467073    8.09785847724737
H         7.75958637893769    7.11816746502140    6.63627205774513
H         7.74064765822967    8.84046486425314    7.03331290135322
H         8.34426289623785    5.77047822623451    8.66068921782870
H         9.79864976955498    6.26592241064497    9.53022735508966
H        10.19457823344456    4.52614589834739    7.71774573107239
H         9.71473180587148    5.72915681066739    6.51838678040214
H        12.66860398203059    4.41656306507782    7.92847747608212
H        11.93537956776438    5.20677369883510    9.33121362840382
H        13.32646898805358    5.94431248362865    8.53066627790077
H         9.91179402236990    7.75855762100432    5.62158660550188
H        10.81506057447263    9.32724189937048    4.04717582544091
H        13.19722448455589    9.87859429967391    3.95062402827577
H        14.79147578453585    8.95524080468017    5.56290169154278
H        14.16555867717849    7.40081597013592    7.27055478122136

