67
CSD_code = EDIHAC | q = 0 | S = 0 | Stoichiometry = C30H33ClPRhS | MND = 6
Rh        6.03262791446768    0.00721642121253    3.48138352611454
Cl        7.61178555651990   -0.50945187141679    1.99043426665737
S        11.81052094776356   -0.45255434112071    3.93015674336124
P         7.55064256436163   -0.02840601316334    5.16318115320101
C         4.51585154677693    1.17752723714640    4.36180473086626
H         4.78541467682270    1.91824104089553    5.10329037954800
C         4.25702081435921   -0.17298163261685    4.60015545476352
H         4.28099806869216   -0.66834867512354    5.56155739623348
C         3.36391024102315   -0.64129549255499    3.44870872064597
H         2.82632757468336   -1.57502966103456    3.59334288728003
C         2.53868251834335    0.62756433546013    3.18637775655873
H         1.89249648269220    0.89733738796427    4.02211738858956
H         1.95549966292015    0.57775702756337    2.26620020454202
C         3.77748994920584    1.52856881529334    3.06856102754714
H         3.62003792425278    2.58474151065058    2.86601370506589
C         4.59967125249713    0.74751582218629    2.04432332007589
H         5.02953091927846    1.18491001361203    1.15234306027273
C         4.34710104464145   -0.58735165294524    2.27820486750203
H         4.53198068907111   -1.41359167630681    1.60288636673526
C         7.17880422737341    1.08290305763428    6.55990123144890
C         7.61487032810548    2.40411520436682    6.51343980901059
H         8.21544952722739    2.73781794173428    5.67854630689351
C         7.27773920294389    3.28691375389064    7.52289412859884
H         7.62558857642842    4.30886754132954    7.48345095977852
C         6.49094945046515    2.86310906625924    8.58170738390093
H         6.22874867177803    3.55234600404230    9.37055099848053
C         6.03477029479278    1.55579134942981    8.62248389140731
H         5.41382713181716    1.22533587471583    9.44237977819988
C         6.36989363460525    0.67103297534653    7.61363835167392
H         6.01206219809040   -0.34874215627370    7.64538740096046
C         7.58103175022949   -1.66980706614556    5.94993588131950
C         8.27598791941457   -1.92172892181093    7.12867056834096
H         8.79794460694531   -1.11736748492785    7.62847961077747
C         8.29008554715767   -3.19810484628000    7.65971186309862
H         8.83010364538080   -3.39409417124254    8.57452460662345
C         7.61622106221319   -4.22700847455815    7.01939164758449
H         7.63261627491123   -5.22241480690369    7.43802898934014
C         6.92544347209622   -3.98151072757668    5.84405921294106
H         6.40419562268746   -4.78479863126338    5.34474019771354
C         6.90878171707365   -2.70534134156214    5.31051081784059
H         6.38081949354422   -2.49187472620839    4.38057856745395
C         9.35791720533108    0.30005744677910    4.93056281986065
H         9.44316447056080    1.16347464287310    4.26166942506524
H         9.80480359680394    0.55533770326282    5.89744186424744
C        10.07244811723295   -0.88042664802842    4.30098874013556
H         9.58514663478185   -1.17651380910438    3.37326770977849
H        10.12517532499049   -1.73200233158013    4.97911025125228
C        11.51243654303656    0.76910439893248    2.65327576270978
C        11.14456556833915    0.34335586204228    1.37644241141221
C        10.85715293056975    1.30434500981259    0.41908340262137
H        10.55778445795854    0.98047344929476   -0.56734831216781
C        10.93832274080773    2.66069271148368    0.69644724272243
C        11.33581174815065    3.05263143863541    1.96428477116379
H        11.41971603767667    4.10536304948801    2.19786847131263
C        11.63181633649489    2.12453477871347    2.95445662228883
C        11.03285654472409   -1.10271556074952    1.01307692041852
H         9.98804147346544   -1.40983560780232    1.07322518856611
H        11.62120962204177   -1.72487380992796    1.68331789115692
H        11.36999561394991   -1.26116933278466   -0.00897495303297
C        10.59208748058781    3.67188338593893   -0.35426896065665
H        10.99854820258866    3.37732683696651   -1.31988945487554
H        10.97749436457143    4.65480781088839   -0.09340302139770
H         9.50883885846863    3.74379412310255   -0.45622039146294
C        12.07873176581635    2.62171513648876    4.29716348435884
H        12.17447444121465    1.80474002269505    5.00679893514668
H        11.37493646721234    3.35700655504520    4.68657792801743
H        13.04989874787498    3.10688472797047    4.20319009285373

