42
CSD_code = EDIHAA | q = 0 | S = 0 | Stoichiometry = C18H19CrNO3 | MND = 9
Cr        2.05432229507392    8.60247135137795    8.38371947119906
N         1.94907924309003    6.97119547553118    3.44528858569062
O         2.96204623134577    6.79335999912961   10.56346703189715
O         4.56336162449719    9.93492870859211    9.26833066014203
O         1.10943026445459   10.04316998423475   10.80959563166222
C         2.59728197210465    7.45907570475420    9.69072637641982
C         3.59943813320326    9.43310337139427    8.87555390787428
C         1.43600297818438    9.49927070192529    9.84375553274066
C         0.70753018489616    7.15974807287607    7.29021140555764
C         0.04752411197642    8.38631696471574    7.35271036348715
C         0.66379370856087    9.54567304821613    6.83729980820648
C         1.93637008200576    9.45729408625240    6.27874475858248
C         2.60745232787145    8.21819865592835    6.22862421402599
C         2.00348183220630    7.05886762164516    6.72876486121872
C         2.64465923231247    5.70348888796743    6.57366175014445
C         4.13853021020536    5.74477128001506    6.88974384949555
C         2.32186047939013    5.15751048997453    5.14840334738042
C         2.89602652395369    3.75468302708782    4.94648655638317
C         2.78660448506331    6.08670378345901    4.07195986811299
C         4.04607266426948    6.26609476200712    3.55049713118498
C         3.96944890965960    7.28561235591043    2.58449336504683
C         2.66643559960567    7.69426045616898    2.54307573545225
C         0.52834092871243    7.08615356753779    3.61780161971991
H         0.19919685716925    6.25723464798177    7.61316108230501
H        -0.97013180370748    8.43801602132790    7.72216647756897
H         0.11897349556071   10.48180433750800    6.81860091148857
H         2.38932766745944   10.32572309813904    5.81536008003927
H         3.56116963148363    8.16037833081958    5.72178723355796
H         2.17220954644938    5.01923659650069    7.28913753850908
H         4.69644971158439    6.25033698828078    6.10753478103806
H         4.52932543844151    4.73678326236771    6.99407181733124
H         4.29667739233450    6.27167150800523    7.83011225339258
H         1.22931895790151    5.07866097211778    5.08804981486341
H         2.55579380688692    3.35074836293952    3.99559728736395
H         2.56609067902664    3.09116008827249    5.74302207324897
H         3.98053905017043    3.77430908630736    4.93537741200402
H         4.93028410392028    5.72058463192854    3.81489382341827
H         4.77794720576707    7.66760346961782    1.99359791477688
H         2.19556121021088    8.44353493453639    1.93690671271766
H         0.26687943623043    7.31216528675009    4.65423368942648
H         0.02104669753027    6.16247923079918    3.32436942057577
H         0.16204689293648    7.89371678909917    2.98570384474879

