55
CSD_code = EDILOT | q = 0 | S = 0 | Stoichiometry = C19H25B10Co | MND = 11
Co        0.25999507293033   11.68369629915999   13.10292357005144
C         0.79929335976061   13.66933140546026   13.25847644944597
B         2.15934061267352   12.89307171240733   13.17048483256685
H         2.88085610507845   13.04731125711893   14.08767189588320
B        -0.31331904241771   13.63302493873411   12.17766629679000
H        -1.31012092826194   14.22212103130121   12.40025924799815
B         1.74604720432650   14.21135982289680   11.84473430556500
H         2.06444223373374   15.32840207398682   12.02512886104445
C         2.25784510211598   11.45000234341699   12.23245744318461
B        -0.33242751400157   12.24407557677989   11.09900395223359
H        -1.42062725382675   11.90215573359240   10.80294973032063
B         0.44425055840280   13.75260320162867   10.56533660605300
H        -0.12423291383521   14.54914390866649    9.90889704516845
B         3.05962311430712   12.86923615354335   11.68084755791723
H         4.21861492908039   12.97753268051672   11.84713728506268
B         0.98895621627749   11.03371336371795   11.24099366118969
H         0.77478602914512    9.88353383555075   11.09459208743842
B         2.13249259957689   13.45031237903567   10.29441129089945
H         2.69626425794553   14.08004755785241    9.47530863418829
B         2.47851181860581   11.72065653737721   10.53568168248159
H         3.24669199292074   11.05415026041526    9.94984932733004
B         0.91941774187470   12.17892569793703    9.88725996947216
H         0.62677973625713   11.85550936191750    8.79482944573732
C         0.62337514341809   14.57096253813047   14.42240969153841
C         0.94712322513065   14.18788271644478   15.72412627137837
H         1.33300351826542   13.19713011982401   15.90957399970148
C         0.77590535368103   15.05109037005423   16.79021304533270
H         1.02863673352841   14.72494428663005   17.78924556679973
C         0.28854709008233   16.32991277183007   16.58263714251285
H         0.15781471222426   17.00566835935057   17.41475302230142
C        -0.02498571182512   16.73329370574231   15.29554155842882
H        -0.39963947283909   17.73135955499083   15.11965382710487
C         0.13514066932769   15.86518610218104   14.23240943985045
H        -0.10725252625385   16.19517871494457   13.23392065858127
C        -1.09855361820837   10.11526180644464   13.22916588040843
H        -1.51074895361406    9.51748874538347   12.43494900407708
C         0.02883547691228    9.78096748118933   14.01882814805754
H         0.63715320920057    8.89829712065976   13.90436268852364
C         0.12757219748518   10.71335251735031   15.07116998164481
H         0.82319538207148   10.66304013116518   15.89128350609302
C        -0.89942744970305   11.65705376698075   14.90343818533847
H        -1.13455745379261   12.46541456142969   15.57599090235213
C        -1.66747966091382   11.28800904466543   13.76978038085240
H        -2.59173646134808   11.74657260241339   13.46345795695488
C         3.02683201173393   10.32550034194411   12.84338995398596
C         3.44633132784361   10.32282271368359   14.17596060085686
H         3.22741098478379   11.16039730417941   14.81588570555613
C         4.14174140137360    9.25798437254240   14.71854019871182
H         4.44802884216175    9.29616885834199   15.75430275516019
C         4.44229647184499    8.14842842646478   13.94951717576351
H         4.98316272451637    7.31570271765544   14.37352361651795
C         4.03206945628579    8.12385009702224   12.62791129671531
H         4.25252107713792    7.26534655615420   12.00996190625264
C         3.33644203128217    9.18882699154991   12.08852426619113
H         3.02676123553716    9.13178746964327   11.05827048843356

