39
CSD_code = EDIPIT | q = 0 | S = 0 | Stoichiometry = C11H16N2NiO9 | MND = 6
O         7.70819943425957    6.96998419940740   11.06134811389357
H        -2.79418630918175    5.47761120109365    5.67599984822967
H        -1.30632830072896    3.19895233320100    7.07542188208981
H         0.80609255386819    5.48237509159956    3.82412927528896
H        -0.17057906266048    4.27947713497074    3.81478734191529
H        -2.01809455821427    6.48429237240893    4.80955320441198
H         0.13330580454773    2.66499201677573    6.83677756841654
Ni       -0.13789791976410    5.12575994275791    6.10736318431046
O        -1.03342156346753    5.40473977703466    7.73761043097372
O         0.22034453540434    6.90474285770287    5.69602087301737
N         1.69670652533693    5.73022281477450    7.58656243114979
O        -0.59308058314406    3.14320844028357    6.42368573298057
O         0.61373222060548    4.63763825999085    4.25175370533686
O         1.62634903719191    8.57447357621659    5.44210751697458
C         3.66739214795731    5.12513075441425    9.01055320403458
O        -2.19914288579055    5.54171511548598    4.92028372523109
C         2.56369818314354    4.65668152463978    8.09444359391836
H         2.99515391550596    4.14581717847990    7.22820849336725
H         1.92187617713226    3.95595532288649    8.63725503294803
O        -0.91783032895898    5.54528609881101    9.93490147802092
C        -0.44479346515716    5.72618313845137    8.83294307784611
C         1.34589465481356    7.48936617854030    5.90380956768142
C         2.38490390192173    6.70965512132707    6.75366331722369
H         3.03930158483478    6.19169595339773    6.04598630243788
H         2.98252417030598    7.43157121068151    7.32448663339834
C         0.94346723447104    6.38828304829521    8.66102291859174
H         0.73844146718091    7.42342486091666    8.37683083018859
H         1.47098250423698    6.39257904635617    9.61851114134220
C         4.85990530703309    5.62076965756344    8.48773237981769
H         5.01833084262294    5.62706487263686    7.42030407427090
C         5.65229544783253    6.07083838826052   10.69613811667291
C         3.49065650541265    5.09936299361809   10.39293572601071
H         2.58055566708347    4.69603067965562   10.81214543901794
C         5.85276279141868    6.09436880380389    9.32145913864967
H         6.78141701527025    6.47955422142439    8.92944914342956
N         6.68931002431429    6.55626928760090   11.57221023660254
C         4.47509544446990    5.57183055906731   11.23877527895730
H         4.34984239489097    5.55892141822318   12.31048255224998
O         6.48101748409472    6.51757454763224   12.76574748943930

