98
CSD_code = EDIRER | q = 0 | S = 0 | Stoichiometry = C38H55FeN3Si | MND = 3
Fe        0.08763129916872    2.64773072402569    4.26743919836498
Si       -2.18494719314566    0.00149641125993    4.88526337988104
N         0.87212355934854    3.82375507544886    5.58641957355744
N         0.82239093047046    3.97056844236244    3.06427991700768
N         3.82886364004595    6.87572991863814    5.01905193413346
C         0.42720304043884    3.24437463920813    6.78965170645262
C        -0.75125434611515    3.72605036362533    7.39574485977744
C        -1.15758419544026    3.18002819833694    8.60115716589261
C        -0.41800474032013    2.18294066272424    9.21501680393414
C         0.72750995054323    1.70293782632136    8.61196241744497
C         1.16645019489946    2.21870706206530    7.40090502480986
C        -1.55692471958624    4.78457273260167    6.68052672173433
C        -2.37594757244986    5.67394621538019    7.61397946835564
C        -2.46648665530950    4.08862823086450    5.66343705417474
C         2.43287774893812    1.70461112384341    6.76081436787001
C         2.31446698077129    0.20750429780601    6.47109236715341
C         3.65096255053638    1.99850118273975    7.63869382853741
C         1.56838704747521    4.93979028539139    5.59096798995979
C         2.01083998195648    5.56338073414878    6.89000596235864
C         1.88007656083059    5.61346933047190    4.39535072860019
C         1.50300754314755    5.09339612177032    3.14619707805838
C         1.91200278418844    5.81491552379820    1.88448458647321
C         0.55694954341583    3.33909895318107    1.83726076684201
C         1.54199347964715    2.52489739150330    1.23816767168815
C         1.23153883695793    1.85338809812552    0.06777045345651
C        -0.00880613971478    1.99709500477673   -0.52986082840534
C        -0.95902528841795    2.82096837326387    0.04088098254355
C        -0.69690707196101    3.49901312607476    1.22235056606242
C         2.88992124713590    2.37612701250543    1.90658917898222
C         2.80317976966408    1.26283362147977    2.95293405859045
C         4.03047007992252    2.10451644567832    0.92677282226073
C        -1.73669430142641    4.41142111632242    1.82920274456834
C        -2.00273920641358    5.60577724931326    0.90967977558809
C        -3.03036616790246    3.64958691499630    2.11556924987721
C         2.61921534801423    6.88667370392621    4.45904432559012
C         4.51602202635671    8.00005140869547    5.08166229537358
C         4.05606315838695    9.21276933944576    4.59480946816035
C         2.79102584906735    9.24025486428904    4.02442765229763
C         2.06401347983107    8.06832447771986    3.95594217304439
C        -0.76795031457489    0.86607214706531    3.99052390837427
C        -3.90591109706017    0.67488546583962    4.38815978130784
C        -2.18979972756523   -1.86883145146212    4.45840722493190
C        -1.99879015127495    0.15064107483802    6.77888377480887
H        -2.05708243616086    3.53502459630329    9.07880654177355
H        -0.74325229398169    1.77694688501980   10.16125113024335
H         1.29351620816586    0.92172897567065    9.09648722117053
H        -0.86201453253696    5.42393347977015    6.12738415847020
H        -3.20438537098663    5.12622444480862    8.05664149414566
H        -2.79090489969894    6.50936682931507    7.05396461034318
H        -1.75266387762279    6.07169085587254    8.41165550050415
H        -1.86727918130650    3.47443966144056    4.97866381291899
H        -3.02194751660024    4.82280554836267    5.08544247861846
H        -3.17309223521983    3.44006173652964    6.17610051117988
H         2.56436842797778    2.22946979287774    5.80817772411261
H         2.25153758269395   -0.36422180914093    7.39387281817211
H         3.18227788392361   -0.13895299955608    5.91455496586890
H         1.41998117002343    0.01384402216192    5.88336540625830
H         3.74702318004054    3.06800176643472    7.80879528113386
H         4.55683845585923    1.64526119664428    7.15097619171685
H         3.56521115352823    1.50283362182439    8.60298493025299
H         1.72216102777212    4.95033531289137    7.73960840304151
H         1.56709488432869    6.55239637470582    7.00127137078567
H         3.09109575389255    5.68620946867703    6.87791469168045
H         2.89048204884283    6.27345010056664    2.00367494923835
H         1.19495026304472    6.60101628066677    1.65072364797975
H         1.93787812435570    5.12736177907370    1.04191876263619
H         1.96420522071552    1.21133065728266   -0.39479278012235
H        -0.22952955459592    1.46928471993836   -1.44588454978559
H        -1.91707052102408    2.93869912689472   -0.44255908560573
H         3.11560272984044    3.30793608251703    2.43401407510164
H         2.54209201541889    0.31766816318535    2.48190861889433
H         2.03363368277603    1.51315495758479    3.68995627867380
H         3.75561514364133    1.14864533548074    3.46474731857369
H         3.96802172986579    1.10051027009653    0.51397848496330
H         4.98361361130422    2.19358611519651    1.44334655155686
H         4.01640455639220    2.82083487917688    0.10826139986020
H        -1.34401903852737    4.78419094157885    2.78252490368774
H        -1.07873011709174    6.13835946299277    0.69687959029249
H        -2.70028316221794    6.29582366820276    1.37974898242759
H        -2.43027142933393    5.27782520256651   -0.03492399593662
H        -3.48246890004426    3.28709158587807    1.19590712922153
H        -3.74892035963635    4.29828430622862    2.61098459973281
H        -2.82481342876000    2.79948340971618    2.76061409422843
H         5.49187878017703    7.92047182899276    5.54611120479145
H         4.65944787697057   10.10432556893023    4.66634497054936
H         2.37816037889549   10.16610005480167    3.64759824662728
H         1.06780154890351    8.06024485279000    3.54035043876054
H        -1.05219658328347    1.01913039305969    2.93812653194671
H         0.08449416330491    0.17190619161639    3.97391286373059
H        -4.02665341034757    1.72036655083078    4.64967343376156
H        -4.69426379218442    0.12090421563782    4.88917806860723
H        -4.07402005481417    0.58166135061149    3.31954494719628
H        -2.30082364926588   -2.03294926627929    3.39064501781435
H        -3.00333186919217   -2.38838876556489    4.95597097517314
H        -1.26263854196930   -2.34294538182506    4.76658617123116
H        -1.04633959201299   -0.24568574630253    7.11508121037066
H        -2.78140666416155   -0.39717722186364    7.29493566284058
H        -2.04733233259492    1.18369912862166    7.10407185810166

