80
CSD_code = EDISUI | q = 0 | S = 0 | Stoichiometry = C32H39Cl5HfN2O | MND = 6
C         4.21714177130425   13.15739921063055   20.37391641561598
H         4.63615257018149   13.91626181416936   21.03004731685980
H         5.03059560950838   12.69088017057054   19.82471909936588
H         3.73728965702230   12.39814645861828   20.98915992000974
C         3.21633470841238   13.77095416601355   19.39129921626584
H         2.87838250485388   12.98051904863845   18.71613381597733
C         3.87646795513257   14.84776408525452   18.52951223463845
H         3.14387967854063   15.26810620822724   17.84677172455689
H         4.67758609538616   14.40454466838871   17.94414840432379
H         4.29089513353150   15.64691992486244   19.13799588308441
C         2.03263237221809   14.34631666517602   20.12972983339844
C         2.19442047079546   15.39171377300372   21.03022497531897
H         3.17799725158294   15.79812187140383   21.20332875840322
C         1.10869979424653   15.92342269285856   21.69634985522993
H         1.24832606525756   16.74060813707976   22.38793551126700
C        -0.16268764555478   15.42523997707421   21.47387753085976
H        -0.99878061898780   15.87008396030797   21.98736918180756
C        -0.37253248573505   14.37324406507172   20.59447866669214
C         0.74629326123030   13.84408260511248   19.94046464804632
C        -1.75718658623916   13.86306873359586   20.26614333083301
H        -1.70916606542291   12.78061233409619   20.09776166828881
C        -2.77160060217116   14.10269398252456   21.38436628113878
H        -2.39085745381651   13.74590719389097   22.33908452214678
H        -3.69163801529414   13.56783164039247   21.16015497569525
H        -3.01562224469163   15.15776017362202   21.47357408656880
C        -2.22980618623982   14.52863808812053   18.96791715708888
H        -2.26088823740156   15.60809295905280   19.09312530235959
H        -3.22717125493293   14.17977190900807   18.71156084029099
H        -1.56346474318668   14.30459057148970   18.13785959901477
C         0.35417888736081   11.56592188157518   19.32692052112284
H         0.40595442846124   11.32519785270503   20.38717633202526
C         0.13191891700749   10.48110996986097   18.43455901050368
C         0.20220168753366    9.17447995212435   18.93790782764556
H         0.36904038314093    9.02130789568527   19.99325560783002
C         0.08892450239820    8.08891628103554   18.09633456362662
C        -0.05720161771735    8.27336207230139   16.72664843042268
H        -0.09273924330838    7.41277541321339   16.07519023658325
C        -0.12431205502515    9.54966910817297   16.18257539484754
C        -0.10601032552785   10.70365429073952   17.03530466089111
C        -0.19686508199259    9.69724126335394   14.75082867786270
H        -0.51232864304274    8.81227485224148   14.19130296554260
C         0.01082648996649   10.86195610320542   12.72131281892021
C        -1.25577485358551   10.85060266425254   12.11555725993095
C        -1.31297979555730   11.08409678684274   10.74688960543183
H        -2.27246579066611   11.09810436245741   10.25571376517546
C        -0.16969139079549   11.29601338241288   10.00295196615707
H        -0.24536934057556   11.48670588264813    8.94319090945270
C         1.07423446424169   11.23256175538762   10.60451084472631
H         1.96107498382790   11.35717405944175   10.00640840421095
C         1.18887700845485   11.00915606737168   11.96709743416673
C        -2.52849447175669   10.56583644338108   12.88050078519049
H        -2.33000773317861   10.63602759656349   13.95664079123313
C        -3.00392234413599    9.14330955789769   12.55765336383240
H        -3.88885516181738    8.90426375362973   13.14294973800150
H        -2.23595301231104    8.40279616828888   12.77464331192442
H        -3.25654075442907    9.06298676821474   11.50296860242004
C        -3.63788864963668   11.56972732528094   12.56385420482917
H        -3.28397617502363   12.57997434121940   12.74368840956849
H        -4.49027809287880   11.38329623730599   13.21308732417675
H        -3.97241450672107   11.48550441613396   11.53368823324706
C         2.76275913842327    9.23954233798681   12.67872401332817
H         2.77145239472251    8.82545145570842   11.67234437637359
H         1.98515963723887    8.73848985653043   13.25217806140883
H         3.71979164975814    9.03233298765828   13.15043882361280
C         2.52690093213769   10.75547170503569   12.62554679097724
H         2.49102775382430   11.12725052829004   13.65982811496310
C         3.69837080634550   11.44091894759207   11.92616720006281
H         3.90930815615984   10.98203610114975   10.96304605175541
H         4.58751179260979   11.35002756774586   12.54538465948223
H         3.48681849630214   12.49706185599105   11.78715343635545
Cl        0.81059329274643   14.56781486451419   16.52498521946103
Cl        2.51398762740336   11.72024395630945   16.17415038210983
Cl        1.78359103337730   13.85497622353054   13.40380737291713
Cl       -1.44872593704818   13.54660341628423   14.25841540722157
Cl        0.16348938955496    6.48821944533155   18.73560719139052
Hf        0.61160211032720   12.71830242537043   15.03967066710942
N         0.55726378635002   12.79620296322804   19.00057581067925
N         0.14732496152370   10.76191470716486   14.12565532576641
O        -0.37788897942999   11.87286692796950   16.59341704194256
H         0.57430648536744   13.11897013353047   18.00838129645795

