52
CSD_code = EDISOA | q = 0 | S = 0 | Stoichiometry = C11H23F6FeN3O6S2 | MND = 5
Fe       10.01580142869897    7.22741876860613    7.75012334365216
N         8.24146306662817    7.06092838530174    6.91970981497564
N        10.14771812185198    9.02412690071246    6.95848071460396
N        11.97888383895365    7.24247217722978    8.00646191506088
S         9.41628456169544    5.43094054015689    9.85307715328342
O         9.96697389812119    5.44645453428487    8.48735384922136
O         8.11066118182155    5.99619912208798    9.98847889418387
O        10.37262187885121    5.48829114961436   10.90632968124026
C         9.01522741931111    3.56431095320208    9.78222325478784
F        10.13513221657402    2.85173601868536    9.57185593017341
F         8.22139025104273    3.33007296935750    8.71460886111107
F         8.40383919904646    3.03967684894920   10.84433388288287
S         8.65997742050985    8.53613429610098   10.16382844946172
O         9.80489371814304    7.76484438618412    9.63825478808352
O         7.60843136423874    8.68340516294682    9.18952523769636
O         9.14056229850401    9.77912586035749   10.70652783126251
C         7.83212718337599    7.76634726287709   11.68472644140014
F         8.52219615006229    6.86163769515635   12.36540018003521
F         6.61388268774512    7.30237461637085   11.42832908777369
F         7.64301115870843    8.79349945596116   12.53568030221054
C         7.07147014569326    6.37955705398956    7.42152276520536
H         6.32544725056508    6.24442783625008    6.63071480529960
H         6.66028772031736    6.96904097161980    8.23576781368238
H         7.35996254647090    5.41873472518974    7.82798615441026
C         9.09904838922757    6.27767484660381    6.08468497944644
H         8.92548635344856    6.41933069390644    5.01466413425799
H         9.01353937874050    5.22745240957526    6.34666718702774
H        10.16422034643151    6.57241030212823    6.30553277464907
C         7.89347444919684    8.35615785292166    6.36369354893452
H         7.18427737505970    8.25255050300309    5.53044874387687
H         7.41818675951682    8.90169921065651    7.17691500931727
C         9.14433417680442    9.08628659395335    5.89907501604744
H         9.54549775651024    8.61459888040365    4.99906664247236
H         8.89651052653665   10.12356180533181    5.64855815326056
C         9.94949264589197   10.12056296233880    7.88903831036059
H        10.21666023020915   11.08004769218565    7.43506060992762
H        10.52574408857198    9.95944378827751    8.79045301493078
H         8.91494622742852   10.14166568944699    8.20655941033716
C        11.50929772776809    9.03402374558342    6.43483071991681
H        11.80614216117444   10.03710818698918    6.10204896235364
H        11.55934509034966    8.36055123042308    5.57717044701479
C        12.44595825212949    8.53642420547430    7.52147563412830
H        13.47531412830742    8.47578461672404    7.14709675871902
H        12.42292002948133    9.23364616822161    8.35516280001429
C        12.42805999203050    7.03411747050767    9.37160979941821
H        13.52057834324171    7.04956141128496    9.43427663222501
H        12.04312989811718    6.08693849155260    9.73017956698779
H        11.99992222445392    7.79987257539148   10.00819506626557
C        12.46689086176248    6.14674922642173    7.18420177722700
H        13.54007011523584    5.98714836004195    7.32747112522494
H        12.28181300177274    6.34154669160440    6.13128476769134
H        11.92839276366073    5.25342669786219    7.48177725626022

