61
CSD_code = EDIXUL | q = 0 | S = 0 | Stoichiometry = C24H26CdN4O6 | MND = 6
Cd        2.42384872302351    2.72497942636513   10.94962788551374
N        -0.38317725950094    0.29657147700892   13.04873487546969
C        -0.80164358462087   -1.00694181513345   13.47949547430242
H        -0.43093889949431   -1.77057692141542   12.79341073703764
H        -1.88871374640587   -1.04716959390509   13.50078049449540
H        -0.41855961623242   -1.22211684997955   14.47953091653934
C         0.89198349293428    0.70106301791192   12.84981292378727
C         2.06678739625640   -0.16323558261623   13.10865278883011
H         2.97154952231302    0.40953204586981   12.92452435447401
H         2.06063238283073   -1.02469564664911   12.44172884681286
H         2.06171243415304   -0.52167145013005   14.13840620079466
N         0.92511770236215    1.95313959830360   12.44056435567184
C        -0.37181947195956    2.37039314418979   12.36736573683221
H        -0.62496575219920    3.36513753004918   12.05618281661155
C        -1.19469133673752    1.35403270977031   12.74271297828749
H        -2.26116025417588    1.29178407385450   12.81179488341687
C         0.81057308345379    4.02071499399816    9.52593242151981
O         1.52063806546706    4.64104369043112   10.38287143222083
O         0.83505100401784    2.77673864724205    9.44726401096095
O         0.60174195262729    6.89719874612676    9.59717553291144
H         1.14174990782002    6.21445581333578   10.07907610887011
C        -0.08623653883942    4.80506246746798    8.63621623964978
C        -0.88156328333344    4.13933589410036    7.70682562340435
H        -0.81186934265837    3.06277966161866    7.66477430998927
C        -1.72587425715990    4.83786087015007    6.86977914600014
H        -2.33760418217845    4.31309872387583    6.15153774862512
C        -1.78250254147331    6.22303561143366    6.95457243710497
H        -2.44098609476574    6.77661951721504    6.30072711317289
C        -1.00245792454763    6.90206463626241    7.86647619841078
H        -1.03494483674927    7.97810469474679    7.94110786745674
C        -0.14306928309495    6.20681063751593    8.71872058950482
N         5.23034166757449    5.15473400017377   13.04928855475648
C         5.64754975135398    6.45785757164838   13.48244196087916
H         5.27512220595073    7.22249665909098   12.79841982323958
H         6.73458562227537    6.49946994901127   13.50266080100662
H         5.26524474561538    6.67035585308778   14.48334939621386
C         3.95554699263064    4.74921129906196   12.85010056031035
C         2.77992104729469    5.61186609903194   13.11068552638093
H         1.87574555014365    5.03918089538692   12.92350820923753
H         2.78631728902592    6.47575957161881   12.44693357633549
H         2.78358453414272    5.96655832990993   14.14174078396603
N         3.92362180420647    3.49776590430930   12.43885897176752
C         5.22096680227996    3.08201786306420   12.36450787325410
H         5.47507383033862    2.08806501254991   12.05159004570588
C         6.04288013923140    4.09862959203334   12.74129548806088
H         7.10930535372142    4.16190100647852   12.81012931157162
C         4.03604206079500    1.42872264938804    9.52511049077327
O         3.32626961227815    0.80857959056115   10.38242431443728
O         4.01104405996797    2.67263884269082    9.44572259393696
O         4.24641208337215   -1.44756738837637    9.59829420313881
H         3.70629010331031   -0.76468981643684   10.07991373017543
C         4.93289724640499    0.64422949022332    8.63556327367129
C         5.72755042431686    1.30973482427112    7.70544285848761
H         5.65715896835486    2.38621268788568    7.66255642240899
C         6.57217009454882    0.61109307743240    6.86880351560040
H         7.18340618357065    1.13568108089493    6.15001539066115
C         6.62978386230699   -0.77396957085614    6.95474716100187
H         7.28855901110196   -1.32763545978777    6.30126596085877
C         5.85034036262239   -1.45278940882100    7.86732283418516
H         5.88361166405851   -2.52874221347788    7.94286160150650
C         4.99064946608841   -0.75741776102348    8.71916171777275

