40
CSD_code = EDIXEU | q = 0 | S = 0 | Stoichiometry = C18H18CoI2N | MND = 8
Co        2.33870810938316    2.89726576241747    2.41842702858874
I         3.45526329795123    1.01608198565301    3.74573235010715
I        -0.07360882936315    2.13260826387510    2.79934296527396
N         2.51038832965900    1.97764600112741    0.69049213480166
C         3.36846208326776    4.07615272724341   -0.03241801795857
C         3.02099999723704    2.73769489452517   -0.32397745996223
C         2.18474782037051    0.72899082028987    0.42786170296490
C         2.33507338084502    0.14682689660450   -0.83651731754585
C         2.84320902572451    0.88666966096373   -1.87014882599294
C         3.20600272716233    2.22770676763808   -1.63117503101298
C         3.74014046672409    3.08846103183302   -2.61235532525886
C         4.07052557521423    4.38110056465867   -2.30680826342976
C         3.88615091589413    4.88485390605835   -1.01096472368607
C         3.11210178309705    4.45055952430570    1.36808260675233
C         3.98238583656996    4.16291845039632    2.45383298543068
C         3.25069731991392    4.41866927564799    3.66259268751634
C         1.94485188872839    4.83188644276072    3.31163207335970
C         1.84451022281158    4.83909285766220    1.87930998695277
C         5.44257120726410    3.87802080410493    2.34754021984823
C         3.81816153021192    4.41941431017608    5.04139757666199
C         0.91246074464257    5.33866986918730    4.26056543375729
C         0.70831352254889    5.37405851035681    1.07462858583496
H         1.78281510491766    0.13819738207356    1.23938933672260
H         2.04380192578192   -0.88229719794132   -0.96928032319082
H         2.97083334574870    0.46719895263054   -2.85687681066561
H         3.88296433887103    2.70442721400717   -3.61119572700364
H         4.47901344994573    5.02992362278295   -3.06657193440634
H         4.15084595067006    5.90708156343314   -0.78438228001933
H         5.70830683083050    3.59952948625982    1.32843901528683
H         5.74350474414635    3.07366060776836    3.01740465735177
H         6.00762453999742    4.77105988048576    2.62233122000708
H         4.71298761815566    3.80478007890141    5.10103180267558
H         3.09579306529237    4.04745106424388    5.76600184650027
H         4.07975453590082    5.44289563855351    5.31978764266982
H         0.88280064799774    4.73959119789838    5.16902850562690
H         1.15794181816827    6.36543345900747    4.54093693933090
H        -0.07687765561981    5.32939248175767    3.81013259024066
H         0.83837389575717    5.13821698088192    0.01905568593543
H        -0.24514146492838    4.96575459873517    1.40704160631927
H         0.66414035250816    6.45945366103432    1.18525285361506

