67
CSD_code = EDIZOH | q = 0 | S = 0 | Stoichiometry = C22H41N3Zr | MND = 8
Zr       16.13278685125466    4.26133548600940    2.87383749518697
N        15.40254087419920    5.43377066971951    4.35567600734671
N        14.26815460910907    4.95908426530554    2.45729968752272
N        17.60100241161528    5.06335238062939    1.73218394083741
H        18.29068421537654    4.41886348562316    1.32727418804120
C        15.46987864560925    2.17204154360400    3.98059619166566
C        15.41716005702932    1.92232723824157    2.58404910642858
C        16.74527855257450    1.96035910848886    2.07557064122549
C        17.61805543178627    2.23749734687339    3.16164301869628
C        16.82847573996939    2.37953832114136    4.33669699833522
C        14.27922927154931    2.20226472325335    4.90159396736623
H        13.77457857889050    3.17368341444472    4.84806425668355
H        14.58259788270663    2.02478383693466    5.93250661274920
H        13.56271350317481    1.42882169447413    4.62273308088501
C        14.16907127624546    1.52944888396989    1.83922650442621
H        13.79271920518696    0.57152608262535    2.20960315943227
H        14.36489831305374    1.41614388407615    0.77350080753099
H        13.38425905299593    2.27581097253528    1.98561514400811
C        17.12774652754779    1.65378254947340    0.64928006745524
H        18.20966368081427    1.65059379340525    0.52633222652252
H        16.70934126448150    2.38459537917251   -0.05101325324882
H        16.76330508444885    0.66527668998465    0.36071857677658
C        19.12464722018985    2.27837356693783    3.14688241379869
H        19.50612537665386    3.24923195979271    3.48047723042978
H        19.51582773416048    2.08753840794044    2.14891171257853
H        19.53243511515496    1.51363924933841    3.81182744067602
C        17.36019762591405    2.49842469981078    5.74075809773638
H        17.45022412712435    1.50803138630592    6.19786497633438
H        16.68934398851161    3.09198115786691    6.36286357153057
H        18.34995915590197    2.95531566805635    5.74974890220358
C        14.34984822722803    5.86937187307486    3.53196665247298
C        13.58178601812952    6.96130470137450    3.71204786638060
H        13.69652795839405    7.60710890834288    4.56308201255735
H        12.79183606058855    7.21793940165921    3.03059939171657
C        15.96390403955060    6.32933595495088    5.34136949535039
H        15.84558658259825    7.38305632346378    5.02055200416146
C        17.47129953276180    6.02325469539612    5.48317179751284
H        17.63251853444171    5.26598389009339    6.24811570432886
H        18.02250686244022    6.91736488443216    5.77107635665982
H        17.85493525825460    5.64531686230626    4.51946149239741
C        15.26554047755532    6.17372101659821    6.70379876797934
H        14.21455950370608    6.43230913313572    6.60945300421642
H        15.72535949107348    6.81893456230429    7.44952614478759
H        15.33255899349553    5.13827147677433    7.03298620368721
C        13.69582790228431    5.40350569964802    1.20464890432104
H        13.78933572466293    6.50389558573633    1.09962912882204
C        14.47662926669243    4.73441784541824    0.05680886838274
H        15.55602709994529    4.83504989495822    0.25105147560589
H        14.22903958253738    5.19725550377692   -0.89802066973419
H        14.21836089661683    3.67594979491799    0.00496706971624
C        12.20106333650226    5.05344093791947    1.09210326847182
H        12.06425306627291    3.97554390061305    1.14714388406477
H        11.79319018169934    5.41444330364467    0.15017654959747
H        11.65309498795832    5.50789019163171    1.91250888053272
C        17.98275633854956    6.40566894141456    1.34525664419010
C        19.37984815274416    6.76237143380734    1.90723212551674
H        19.38858299349741    6.64489534334193    2.99018877773727
H        19.64455909542881    7.78886783477129    1.66506557706653
H        20.13540033468546    6.10225888801640    1.48300597754229
C        18.03832617056463    6.54909677723243   -0.19384069995951
H        18.72432319038084    5.81584643269414   -0.61641914990995
H        18.38140121110261    7.54192496320409   -0.47540603285952
H        17.05181888596652    6.38725629091036   -0.62383792524268
C        16.94944040258243    7.39745458358293    1.89994625949784
H        15.94719990538747    7.11621434804195    1.57143385217996
H        17.16618207217491    8.40508294109954    1.54928567817589
H        16.97007028829988    7.39315703367512    2.98934189089258

