65
CSD_code = EDOBAC | q = 0 | S = 0 | Stoichiometry = C22H37Cl2IrN2O | MND = 8
Ir       24.92285727634827    5.48784577334773   12.76223599105134
Cl       26.66305688174652    4.02836714886776   13.42910612743795
Cl       23.44285968978560    3.67602254049740   12.96598921097048
C        24.87108354487516    7.72465177706734   12.51982118840672
C        25.85426077430590    7.38121239721551   13.48816136487713
C        25.17614080609771    6.79592856599835   14.62642554281282
C        23.80404197977652    6.74245397020324   14.33839999065494
C        23.60542143701880    7.25779364542855   13.00188402691196
C        22.26499499616720    7.57320355433629   12.41916065611603
C        22.69003647644560    6.30401413800758   15.23031226297845
C        25.86586261199727    6.44845964208207   15.90431240402987
C        27.29437846773891    7.77787310393102   13.49649803683129
C        25.08895824955140    8.53344289875655   11.28037920547215
C        25.18204688942626    5.13393848620031   10.76579666512761
N        26.33735205635660    5.27267214581475   10.07574506863288
C        26.09703928724909    5.24698977009993    8.73172050401439
C        24.76399438923789    5.08988007925423    8.57475284474161
N        24.21514161158204    5.03092649925736    9.82626913177489
C        22.80322933236583    4.81474978644778   10.02685163021970
C        22.42023284235206    3.36326948321157    9.73500609661026
C        20.93779854273632    3.12674135233562   10.00474452467460
C        20.54145130147080    1.68537599619200    9.71353664321642
C        27.66780742336753    5.37119504967423   10.61279144585116
C        28.56702345456745    4.17540875528459   10.21813165399771
O        28.99299363940314    4.48652268510121    8.88405543061850
C        29.80621915268634    3.54358497598783    8.23197618427444
C        27.78378025298861    2.86370081780004   10.29512073196619
C        29.73843042465622    4.13853935512209   11.20449773076852
H        21.55451049398754    6.77836738825857   12.63608896496986
H        21.88076887796823    8.49788365276037   12.85552418592079
H        22.32327179656500    7.70647323370990   11.34131057944971
H        22.17037789954897    5.44743021334984   14.79957054473894
H        21.97021325836432    7.11440787662346   15.35156728480787
H        23.06180922382953    6.01558262673598   16.21001972471592
H        25.17899913748164    5.99074475172121   16.61161298222940
H        26.29016347397846    7.34673443365873   16.35599208340390
H        26.67922929030775    5.74671058727746   15.71943176981285
H        27.91318800218967    6.96078342469313   13.86344755952691
H        27.43811946719165    8.63272597733653   14.16025627434619
H        27.63581543368748    8.05481603522760   12.50212163386395
H        24.38765127510658    8.25317129388723   10.49704160833971
H        24.94027096910508    9.59123645374968   11.50487864450773
H        26.09911741659461    8.40673308110185   10.89772661265534
H        26.89565674106813    5.32776749697723    8.02420041990231
H        24.16707199338683    5.02518903708442    7.68866382381536
H        22.56520131288679    5.03216554871653   11.06713890055609
H        22.25133931207008    5.49443035853658    9.36997938154159
H        23.00819373013130    2.72170272232986   10.39150664391338
H        22.65608170814735    3.11339164751335    8.69778805687033
H        20.73789877235043    3.35112556912935   11.05295646456215
H        20.33792768128004    3.80320672129807    9.38994241321773
H        19.48391466416986    1.53221781199757    9.91408158885508
H        21.11255892028087    1.00680197692097   10.34149667155734
H        20.73321431309615    1.43517660349666    8.67188992872822
H        27.59368708799176    5.40602732538143   11.69834068265282
H        28.14002365799616    6.28081605323294   10.23165708957110
H        30.00547947944704    3.96027038929382    7.24520982233709
H        30.75861998381815    3.39316023745000    8.74954567027014
H        29.30391533936670    2.57833144401517    8.11585185531494
H        28.45605988168741    2.01078614490674   10.25984989790345
H        27.24301020054921    2.83632603411978   11.23698696300255
H        27.07314974498689    2.78586275061500    9.47495780925588
H        30.41308951644207    3.31748430910505   10.97843252398094
H        30.29499457370350    5.07218853362007   11.16634163526540
H        29.34291157591269    3.99150586222463   12.20500900846950

