36
CSD_code = EDOCUW | q = 1 | S = 0 | Stoichiometry = C14H18ClN2Os(1+) | MND = 9
Os       10.66993703362406   -6.92018784823196   13.54577640872159
Cl       10.17283170925482   -4.65815583625267   13.63577543833965
C        11.73592676054505   -6.62990232605190   11.46996905904559
C        10.41361018720729   -7.12021029084604   11.26349510189485
C        10.01177917865737   -8.33993523816543   11.82609950444472
C        10.93161722275833   -9.14000610223770   12.55257318039363
C        12.21425206809714   -8.65271458156428   12.78909229836828
C        12.60437863259434   -7.38722924626129   12.28552961540016
C        12.18502170986217   -5.38511233128418   10.83606457845865
C        12.98039705376338   -4.47936650332878   11.53828067176004
C        13.38820022913781   -3.30184626352254   10.94252678318452
C        13.02228521821427   -3.01927065422177    9.63630845511593
C        12.23909071731881   -3.91676920689405    8.92897970143228
C        11.81356906670079   -5.08883961933149    9.52479012984325
N         8.90949961135854   -7.08817173878065   14.77019126096854
C         9.14746602511215   -6.54559129506415   16.12581034010927
C        10.55213744811066   -6.96494648977557   16.55328691263595
N        11.47079087981896   -6.51196836592590   15.49113825739356
H         8.39769638177451   -6.89724112827338   16.83871361096394
H         9.10451465471198   -5.45501670123956   16.05786717781454
H        10.61519745457774   -8.05381054622744   16.63507344856691
H        10.80532418380530   -6.52410312756643   17.52162217497482
H         9.73903324703163   -6.57033173460502   10.61985728128103
H        10.64960506133532  -10.13026022248906   12.87990708101155
H        12.94050123472499   -9.26601510747792   13.30557215929871
H        13.63175734786201   -7.06458623687471   12.40098397757776
H        13.24294335180147   -4.68099756542984   12.56715664976312
H        13.98973758998928   -2.60067418719652   11.49998648149497
H        13.34385737236370   -2.10021614652951    9.17196088414044
H        11.95467362889693   -3.70181565027624    7.91059034510676
H        11.21756965388786   -5.79159963898591    8.96124780983859
H         9.02905148697850   -8.73590371855251   11.59628981501957
H         8.59640029085021   -8.05884378016927   14.84180486889786
H         8.15201692592392   -6.55370259972563   14.33794507620533
H        12.41160774946731   -6.86661350125719   15.67052441683634
H        11.51552163187604   -5.48294446937816   15.52380904370152

