55
CSD_code = EDODUX | q = 1 | S = 0 | Stoichiometry = C25H24ClN4Os(1+) | MND = 9
Os        2.63893934594123    3.93581467712698    4.12036275094273
Cl        3.65455211383195    4.91958556751130    2.39950978396427
N         1.47427759490301    2.84247758778558    3.06377480752802
N         0.27148257837172    3.26064903440250    2.82293638688656
C         0.00818638904380    4.47441727049340    3.33367007705463
N         1.02470025886923    5.06962393401704    4.03071656716584
C         0.83712253397678    6.28691705881777    4.53980425564642
C        -0.35718239501731    6.96044614267644    4.41676985034603
C        -1.41174095723207    6.35756347318906    3.72616206665565
C        -1.23148286067581    5.11091316992372    3.17790699228503
C         1.85357051706254    1.64131077613448    2.52596752366721
C         0.92216819266754    0.74058375993218    1.97721431752956
C         1.33218838862670   -0.43502613765266    1.41462386060102
C         2.70257416647227   -0.78715773303903    1.35089176595380
C         3.63017694081343    0.12851537682355    1.90566140648748
C         3.21662960564440    1.30142549910103    2.47396951016882
N         3.10664897310778   -1.93795691320689    0.77863069156808
C         2.16831715914792   -2.78847307540065    0.08314707123122
C         4.49573378368256   -2.33268204335903    0.80076722425952
C         2.57363183160959    3.87676046839187    6.43496981442861
C         3.66472235238733    4.78717336730351    6.39244934288490
C         4.91010766279083    4.38723681480567    5.93935803301818
C         5.15166477807984    3.04426110137354    5.60108861879156
C         4.12217789149280    2.12422880898406    5.67581689544273
C         2.81910373644263    2.53856591967212    6.01549917316610
C         1.28680132517173    4.25192852245097    7.05749234457836
C         0.08783516391242    3.70712680474984    6.59204334718762
C        -1.11823893428246    4.08518273084846    7.14936143505930
C        -1.14880701438203    5.00001930079880    8.18968408356888
C         0.03545644849292    5.52768355541455    8.67521783838613
C         1.24469689872902    5.16035039814421    8.11360736312487
H         1.67912244123320    6.72935747088836    5.05424049905658
H        -0.46476079236532    7.94316024892816    4.84370023999823
H        -2.35274715854106    6.87258884789369    3.61904943774248
H        -2.00095040187286    4.60193929362182    2.62302474392042
H        -0.12250289567246    1.00436352070896    2.01527406489104
H         0.58541790008128   -1.10109274731841    1.01849651630317
H         4.68602989882450   -0.07436141814805    1.85223344787190
H         3.95310718250703    2.01137852246048    2.83558796793214
H         2.70852773769783   -3.56582567024882   -0.44983009324434
H         1.47661585002368   -3.26843999910171    0.78056145127976
H         1.59374932570982   -2.21582273901735   -0.64706651229972
H         4.58938329553712   -3.35213141433452    0.43700927142647
H         4.89073961031247   -2.30161534663600    1.81767088797878
H         5.10401848106332   -1.68422417974687    0.16401129259502
H         3.52559086378274    5.79910603942250    6.74750445058392
H         5.72412078517557    5.09697985504955    5.91000728406689
H         6.14819178259916    2.73288137043165    5.32744146846671
H         4.30892421308018    1.07699732415796    5.48542254145719
H         2.05963411474702    1.78314232173156    6.18451709288103
H         0.09517126974671    2.99648611036681    5.77417553996423
H        -2.03663010884208    3.66379880690693    6.77083832413787
H        -2.09109579024233    5.29357364136551    8.62469527661735
H         0.01996397861336    6.22746777561452    9.49629751223995
H         2.16136394711870    5.56192714679288    8.51836209455268

