83
CSD_code = EDOFUB | q = 0 | S = 0 | Stoichiometry = C33H42Cl4N2OTi | MND = 6
C        13.93673071621907   12.25737906464410    2.03368958470821
C        13.87682240409101   13.38331298177433    2.91387788209786
C        13.76287863003423   14.66465103880284    2.39553347611594
H        13.72517042735434   15.50280554564385    3.07801344007356
C        13.66972707295166   14.90741089154041    1.02340420252548
C        13.65206084090980   13.82678806524433    0.16712784489552
H        13.52742777215911   13.98736363654825   -0.89446829979969
C        13.75169600370452   12.50468900533223    0.63295948647564
C        13.92150753027562   13.17030220966062    4.33840882857422
H        14.08981657196053   14.06534571050067    4.94940157236415
C        13.86274959780373   11.99202706639092    6.32875718267794
C        15.12955087996234   11.98746434977449    6.92948900097919
C        15.19368896773614   11.88298950910003    8.31341098234427
H        16.15683905074625   11.86895139273478    8.79807784920829
C        14.04915758276479   11.80546500147682    9.08097488938146
H        14.12368042861529   11.71657042894089   10.15451536224760
C        12.80812287023860   11.86962332923786    8.47674681641693
H        11.91910705426323   11.84707481892230    9.08572796373932
C        12.69002428573929   11.97107410723680    7.09877101695861
C        16.40557818761310   12.14069568470113    6.12970959903400
H        16.19005910874172   11.97607912875952    5.06706042759115
C        17.46685808958368   11.11793284998134    6.53863650088509
H        17.83359453894071   11.30097006820179    7.54528388108525
H        18.30959348065231   11.17544641822411    5.85372473985540
H        17.05462993084436   10.11474553243994    6.48521334865391
C        16.95115288989816   13.56289597888585    6.30587566725354
H        16.23233461916883   14.30838499078616    5.97055568519085
H        17.86581789643545   13.68484389095976    5.72993926198169
H        17.17445209666199   13.75529703712382    7.35301830856762
C        11.33837234011013   12.17337971537749    6.45170726545551
H        11.40134143398398   11.87851750427372    5.39851361606528
C        10.98214546744770   13.66394242316059    6.50709496345614
H        10.94047523563115   14.00600798978165    7.53974978866299
H        10.01228665959762   13.82960373773155    6.04436324844444
H        11.72092023729386   14.26163373667675    5.97574206458274
C        10.23161252404227   11.33996478191608    7.09689342536088
H        10.54287598176218   10.30171263182462    7.17413713647696
H         9.34000985729082   11.38439551615240    6.47565392683216
H         9.97370802381143   11.71035079990734    8.08649389905973
C        13.59270450525849   11.42661196510876   -0.27355944094062
H        13.57135486974325   11.65989359403994   -1.33629603696397
N        13.40894772533689   10.19186181811899    0.05974028136827
C        13.27752196581301    9.11740095635734   -0.85751006275326
C        12.00906599005287    8.58522665269614   -1.08114707110767
C        11.90244243906313    7.51524639873776   -1.96073799816080
H        10.93442980724434    7.08542675950030   -2.16340544319545
C        13.02463850102847    6.98767406459949   -2.56749842900485
H        12.92775962067355    6.15124770872843   -3.24337671647073
C        14.27803508724384    7.51137744509269   -2.30376332412395
H        15.14171758770642    7.06574221006881   -2.76865785401066
C        14.43286097904077    8.58914174358135   -1.44430121360022
C        10.79002472941496    9.15319591222617   -0.39505843146470
H        11.09235841849237    9.95203979824318    0.28864702182280
C        10.10664266929325    8.07733170015756    0.45006897215072
H         9.72774394713878    7.26547701469894   -0.16549169060586
H         9.27664978143595    8.51736460127601    0.99658939663131
H        10.81501193537288    7.67465849379576    1.16914795089098
C         9.82325307063857    9.74740728208725   -1.42271821546979
H        10.31780529833697   10.51158322681563   -2.01995032917275
H         8.97887228102138   10.20300490681041   -0.91220285615866
H         9.44605373564914    8.97928474856983   -2.09335107713447
C        15.79088735893471    9.13827469795927   -1.06813621127283
H        15.71884495643046   10.22825913835008   -0.96920203529001
C        16.86990834257235    8.84823161915537   -2.11135550104903
H        17.12608880199985    7.79230495351553   -2.12633346883606
H        17.77138158937472    9.40465174217965   -1.86496078396048
H        16.54270675473536    9.14752310931461   -3.10499246732988
C        16.20338317947225    8.55992743144771    0.29179329727906
H        15.51595200167028    8.85283013679850    1.08444486148823
H        17.19748543719281    8.91055718629092    0.55888231545591
H        16.22001777978798    7.47383558314110    0.24468120445406
C        13.55012954734589   16.31269571722123    0.51994076883318
H        13.59467669462072   16.34269571251468   -0.56484468208873
H        14.35128117096152   16.93053716391016    0.92097031868300
H        12.60339253697219   16.74630619055076    0.83897857336210
Cl       11.45340511347259   11.08320366373405    3.01985732197928
Cl       15.49417174530660    9.41781618912996    4.40162406386085
Cl       12.48311318706395    9.16876383985937    5.57560584272201
Cl       13.11111200198856    8.36596046713356    2.52934697813813
N        13.75349878795424   12.04061765466006    4.91269434040224
O        14.20310300027582   11.08734267614578    2.47197815392694
Ti       13.42914376169753   10.13997509059464    3.88453166677016
H        13.35774401824149    9.89880246463906    1.05714217348726

