55
CSD_code = EDOGIO | q = 0 | S = 0 | Stoichiometry = C21H24CuF3N2O3S | MND = 3
Cu        0.36854973493854    7.26344304937131    2.58942150600671
S        -0.92803102975831    8.94113461883775    3.49324731400725
F        -3.13985639349528    8.97600940214410    4.98247732337554
F        -2.42758568412060   10.94329375581140    4.46303072283266
F        -1.41347781001169    9.79665323155132    5.98052774414759
O        -1.75444775159543    8.88854972241272    2.32095971149528
O         0.21380782752719    9.80951394812431    3.43629424727254
O        -0.67251486208311    7.63868630321709    4.12130424211652
N        -0.34800901108753    7.22376618886114    0.61864244980240
N         1.88407178864154    8.39983799671105    1.70169519496260
C        -1.45447741991651    6.66889133762764    0.16577765039987
C        -2.16379327019334    7.24566532570749   -0.90437067849551
H        -3.08520369574328    6.80267399524998   -1.24478873990551
C        -1.69081486104972    8.38095096836220   -1.50357134410481
H        -2.22402855543705    8.84084043915090   -2.32366025735089
C        -0.50716286284129    8.97377964548327   -1.03209128047158
C         0.02340476804463   10.17023103605478   -1.58681457551997
H        -0.48809768873522   10.61453431004293   -2.42825921981087
C         1.12692311962964   10.74800203227422   -1.05585820895497
H         1.52424994367556   11.66744600502924   -1.46062083243063
C         1.77806508927786   10.17162721413880    0.06877370431607
C         2.88271676778151   10.77469890638050    0.69423288912879
H         3.26472861326040   11.70987882233134    0.30966170674769
C         3.44602811839923   10.18058751186280    1.79002044614642
H         4.27906804969346   10.64985526886524    2.28727475690976
C         2.92546252187723    8.96665990682355    2.27707698022596
C         1.29843350002929    8.97037498124910    0.63002580142825
C         0.12855579520926    8.35520579140491    0.06371182743308
C        -1.98837151562201    5.42183075536632    0.84310126228272
C        -0.96154716038000    4.80429228724265    1.79392369070710
H        -0.74219632036054    5.48827369780143    2.62224866362788
H        -0.03463931245955    4.58285664215617    1.27192664398015
H        -1.35875237658927    3.88418170357423    2.21521910699527
C        -3.21919594988221    5.85687108999908    1.65242271628470
H        -2.94942308182959    6.67503548369615    2.31693961927302
H        -3.58940684346106    5.02461002275023    2.24608878318630
H        -4.01727035662043    6.19980966879175    0.99855545669256
C        -2.37648233843553    4.36419705884984   -0.20033537895071
H        -2.70090629898944    3.45752826569414    0.30435110502997
H        -1.52299791818753    4.12081333403657   -0.82904023468095
H        -3.19082311358580    4.69725469048680   -0.83658037387579
C         3.54884955794855    8.32287014222173    3.49995928140501
C         5.06108476935198    8.15312524318873    3.29220828030895
H         5.25455722363460    7.52141492426823    2.42823600637169
H         5.49798898619764    7.68072854020055    4.16854282863381
H         5.56171592732627    9.10489525348226    3.14160802124623
C         3.26688702542569    9.25541693679971    4.68757284951725
H         3.56467376827498    8.77721445970077    5.61745392825166
H         2.20308396623552    9.47975545952817    4.72649217866151
H         3.81017853018365   10.19212665486946    4.59229528982263
C         2.94851297142488    6.94794259256302    3.79600000502361
H         3.06003181813275    6.28404627424219    2.94286199936601
H         1.88246870444604    7.03591826670477    4.03850410082109
H         3.45085361067998    6.50647541128774    4.65329313818609
C        -2.03693901479644    9.70992342544773    4.80142995011831

