91
CSD_code = EDOKOZ | q = 0 | S = 0 | Stoichiometry = C44H39NO3P3Re | MND = 6
C        -0.79762661841955   11.04606616031673   -0.26546997610961
H        -1.08100169049069   10.68402474689584   -1.25270866337202
H        -0.15527306189388   11.91637148245935   -0.39126508819442
H        -1.70069005334156   11.36043092300413    0.25549707233282
C        -0.07191243177632    9.94730538484785    0.52632547492999
C        -1.09465913721267    8.83200485897842    0.81582736642206
H        -1.77267789243876    8.72765280122787   -0.03872757505579
H        -1.68526770392622    9.11880621406722    1.69373510616339
C         1.08632721148222    9.43252766423253   -0.34726402374043
H         1.51604189625590   10.26900086419441   -0.90918225064455
H         0.69328689466886    8.69841969812515   -1.05973929762751
C         0.45738616527060   10.57953645217924    1.82695571525279
H        -0.25442186607050   11.33163096798783    2.18464179482342
H         1.40964417892999   11.07687337209040    1.61036188159858
C        -0.36378717817235    6.41671519085640   -0.51418860884968
C        -1.55108129089671    6.32982098655993   -1.23748993971130
H        -2.47515045733589    6.69834698656649   -0.81118511928043
C        -1.55639649859810    5.75346482947917   -2.49279846334783
H        -2.48016965491179    5.68933445289475   -3.04958054443464
C        -0.38307790324464    5.25052147937195   -3.03511998110691
H        -0.39339873886993    4.80151306820800   -4.01724874242533
C         0.79430056990755    5.31262719947280   -2.31080871124168
H         1.71060982005772    4.91233147045143   -2.71857082837960
C         0.80123161363763    5.88876095579215   -1.05252583401133
H         1.71699516721274    5.93092500241095   -0.47919852705921
C        -1.73821610405181    6.19358998492795    1.82845240596982
C        -3.04177957178499    6.63022374724437    2.02599771386020
H        -3.33546258991958    7.64145944284757    1.78000750147723
C        -3.97804339132617    5.76307800023706    2.56231860460659
H        -4.99127755823325    6.10528571915306    2.71971707218629
C        -3.62187856147146    4.46954292382644    2.90429740474758
H        -4.35634809994124    3.80582365126581    3.33580610941443
C        -2.32389089336063    4.02877749631833    2.70063265824901
H        -2.04097212692369    3.02420789710288    2.97487100090338
C        -1.38628235989258    4.88694482441772    2.16204625820358
H        -0.36195208651793    4.56478399251503    2.01098891044408
C         3.43372921689175    7.80701571469586   -0.73853773495385
C         3.20495288756326    7.89713122402436   -2.10522873257146
H         2.37470336725452    8.46747231161397   -2.49616311318102
C         4.04300548882750    7.23385126669828   -2.98591302673312
H         3.85797108225355    7.29970992618850   -4.04857971073926
C         5.10910874621743    6.48827245414684   -2.51349198302732
H         5.75463492890190    5.97123099115342   -3.20789592440413
C         5.34522941743254    6.40278785468020   -1.14979535780845
H         6.17447987772801    5.82062161128000   -0.77745056678358
C         4.51069417890173    7.05866898217321   -0.26716494406699
H         4.66543361362766    6.99131408890430    0.80432094677163
C         3.62184323443593   10.00950899882062    0.85184933453065
C         4.05180167898867   10.79012192870903   -0.21899202173736
H         3.70636809015204   10.57629280510383   -1.22185278216821
C         4.93846756463218   11.82802043971886   -0.00674293567583
H         5.26669307898258   12.43187663542048   -0.84040903700024
C         5.41403067029283   12.09044854789167    1.26945469917461
H         6.10642510120595   12.90365006789786    1.42909175273819
C         5.01134630880654   11.30064870301495    2.33184679850400
H         5.38633411891010   11.48837024588398    3.32681520050122
C         4.12287013609137   10.26071472927594    2.12132735097648
H         3.81109691064479    9.63491345333275    2.94518862112313
C        -0.82826009567446    9.51759431634770    4.12222417297760
C        -1.23708280557611   10.75973345917583    4.60513970431298
H        -0.61532978732089   11.63332679225404    4.45746380164025
C        -2.42922115724077   10.87513888067516    5.29248498339658
H        -2.74052610684701   11.84000514249147    5.66681266405422
C        -3.22093470934231    9.75703436040907    5.51114943943633
H        -4.15106146724092    9.85429548735191    6.05159623754020
C        -2.80962475249465    8.51954629628725    5.04965966079137
H        -3.40940329378080    7.63938863015959    5.22709630440507
C        -1.61478081225450    8.40008570967863    4.36099750463139
H        -1.27835549784969    7.43051635540269    4.02547903834620
C         1.76864558052448   10.30576083854888    4.39493519543653
C         2.14926064399103   11.63765171009704    4.29832699759490
H         1.86391810135804   12.23921169453715    3.44671428146651
C         2.91959838930818   12.20333301626641    5.30013914910942
H         3.21932860449441   13.23875451881455    5.22087403097246
C         3.30781866245602   11.45139674202820    6.39570580101583
H         3.91222601331519   11.90093618002785    7.16982727137140
C         2.92381137121173   10.12312885323369    6.49787806704253
H         3.22656582608470    9.53371150846267    7.35010508217618
C         2.15705363016836    9.55245802086553    5.50156081186807
H         1.85683799245451    8.51151503534688    5.55765834910404
C         2.40523576706589    5.57796548278655    1.80247988280513
C         3.33262096163734    7.36854847678885    3.47945474618339
C         0.14816842657193    5.55338333255366    4.72886216119162
N         0.75359780881832    6.31375218261021    4.06725181908404
O         4.30859755824640    7.36534698104719    4.09369113074894
O         2.84281044848695    4.56825550065888    1.45769267364949
O        -0.48569740553661    4.86470918222967    5.44337026043747
P        -0.35993671859845    7.16819404304465    1.15649143979595
P         2.46453856256517    8.61385972373291    0.57734376469246
P         0.74995901769156    9.37792534438457    3.20611728712056
Re        1.71167354816551    7.27846232852510    2.42023157513960

