91
CSD_code = EDOKIT | q = 0 | S = 0 | Stoichiometry = C44H39O3P4Re | MND = 6
Re       12.38598820917180    2.69987459274744    5.47629428060028
P        10.18220350379135    2.67103206811202    6.46634497992471
P        12.43520867241253    4.97147234323959    6.27364820630648
P        11.21914521525867    3.67642177022241    3.61513362710709
P        14.78829009048580    3.01250460097682    4.37348944944367
O        16.00424828115226    0.55766727061724    4.83996621687038
C        15.40789152635812    1.55171306001409    4.69340084296054
O        12.51873519620055   -0.16127806465100    4.31002870372861
C        12.43106855468148    0.90552251092977    4.73790296930684
O        14.03475156753070    1.50356675761165    7.80402560357602
C        13.39779658879300    1.96833323453215    6.96392135638149
C         9.99037254987340    2.89822066281604    8.27342060688118
C        11.10795870703996    3.03104742381839    9.08466680437761
H        12.09115701284895    3.01879395754310    8.63523853596966
C        10.96696761517241    3.17906609301966   10.45335669325791
H        11.84566323436218    3.28813378706721   11.07140589369044
C         9.70472164965951    3.18416168169117   11.02018085409983
H         9.58952065664461    3.29962742735201   12.08773398831318
C         8.58451389014417    3.02642516239340   10.21747295238526
H         7.59942434716722    3.01226790414037   10.66117540411427
C         8.72276070326116    2.87774711217417    8.85119853982393
H         7.84580007230344    2.72918617519770    8.23491530906197
C         9.21897380661585    1.13088926886893    6.34807725623929
C         9.92328026224457   -0.00690335841406    6.73735336299247
H        10.96038059502671    0.10255254262807    7.03789909872306
C         9.31483160316551   -1.24574158523631    6.71559016375780
H         9.86761590755169   -2.12434076726183    7.01213142074726
C         7.99543164947372   -1.35690806776503    6.30365919160799
H         7.51687161833101   -2.32472255044040    6.27770057840801
C         7.29129038843371   -0.22812145838042    5.92150319917168
H         6.26340316403753   -0.31523192916514    5.59945499942828
C         7.89536239756207    1.01770770113450    5.94390426729239
H         7.32948211057510    1.88479759680053    5.63477548432565
C        13.26613243027017    5.22783531192276    7.87039695931653
C        14.58278066303768    4.77023637898537    7.89384331642434
H        14.99427787545547    4.30589462653469    7.00272409207000
C        15.34417124608313    4.89624984721621    9.03832957125353
H        16.36107886227436    4.53405362155299    9.05170103067373
C        14.79578707069873    5.48221353336892   10.16884971528619
H        15.38556510770726    5.57793176095205   11.06866082236065
C        13.49092548445227    5.94412297716967   10.14680894510201
H        13.06390626336016    6.40260313616119   11.02758860779758
C        12.72191627406103    5.82171543339693    9.00198078199124
H        11.70297915749684    6.18267097201005    9.00828933329994
C        13.25018145440349    6.34197923208022    5.37597744280568
C        13.78178829225736    6.16336081371700    4.10755759742048
H        13.73826473716808    5.19180082847168    3.63556878925918
C        14.38011779177208    7.21991123591521    3.44339371948417
H        14.78819741997179    7.06376834939986    2.45572354435499
C        14.45657213493688    8.46196911508767    4.04751426202986
H        14.92522496522625    9.28853011564358    3.53377101643894
C        13.94085963482560    8.64369787670846    5.32250239065316
H        14.01154944446657    9.60958343678618    5.80200657905864
C        13.34293916633491    7.59157864146609    5.98747741521134
H        12.95923086450832    7.73603653542953    6.98931341422741
C        12.13177615783672    4.07328550246835    2.09338307860912
C        12.89310233784568    3.01292104835005    1.60514969980967
H        12.90351712479837    2.07741592677949    2.15425956845396
C        13.63279671000168    3.16161982720996    0.44853912828835
H        14.22886977682208    2.34014544827690    0.08077539968069
C        13.61323958985678    4.36973537682856   -0.22986099979621
H        14.19471497681276    4.49313583975190   -1.13171817639839
C        12.85152491627813    5.42268701701203    0.24865733692439
H        12.83596170593615    6.36428730226417   -0.28201213415241
C        12.10972527303587    5.28192306138163    1.40859036846025
H        11.53237532250973    6.12022906066540    1.77325393908850
C         9.88750994836703    2.72318274155718    2.79592843261641
C         9.17889492126101    3.28550248478740    1.73609496438812
H         9.41480410428652    4.28404065205172    1.39188013477212
C         8.18636137297913    2.56158948008437    1.10519051452770
H         7.63826644091892    3.00442920200783    0.28598412420101
C         7.89919023664694    1.26733371107791    1.51315618217997
H         7.12211892191963    0.70605125189112    1.01569728488985
C         8.61968432368668    0.69369314930203    2.54544701591185
H         8.41473793469983   -0.31873588009354    2.86028670196461
C         9.61314061051618    1.41854089925510    3.18050232619502
H        10.18365049839945    0.97046607828741    3.98227921491770
C        10.35749627287791    5.25355467800538    4.04209630269944
H        11.09703565844001    6.05998752209406    3.96971391224109
H         9.58322835991642    5.42232712854741    3.28519243027154
C         9.04215185472614    3.95533319895315    5.78276583102875
H         8.59552518446928    3.54108508372277    4.87139945483435
H         8.24892206076518    4.12272230520236    6.51978229908039
C        10.74642018214468    5.68142606931572    6.52224019256083
H        10.38050015435738    5.32797563965141    7.49351020735249
H        10.84921933816289    6.77184937077508    6.56336095658528
C         9.71911419735341    5.29455051516983    5.44243510457954
C         8.62899569938012    6.37655657056052    5.42437449450375
H         9.03563112816318    7.32364355588315    5.07307348033373
H         8.22324962521551    6.52814858134492    6.42349352591102
H         7.81288939048017    6.08793189527307    4.76354751495687

