77
CSD_code = EDONUI | q = 0 | S = 0 | Stoichiometry = C26H40Cl2I2N6Pd | MND = 4
I        15.97223920163355    3.70773095180916    4.27958098122376
Pd       10.59530048748901    0.00012563256653    7.77749996869351
Cl       10.14483152281155    1.82124965004266    9.13396498116680
N        10.50636542241077    1.26175652151112    6.18369306271593
N         9.15299728893432    1.97545056389244    4.43121448902992
H         9.99855492958147    2.05589392366134    3.88295044644294
N         8.22965173776067    1.36939559458671    6.49790958003160
H         8.51969053378381    1.28316257364786    7.48232051076835
C         9.32317105711437    1.53555266467518    5.70005141391464
C         8.02376539138112    2.73996508353987    3.93287953889105
H         7.25648976552346    2.73020443941562    4.71069180585036
C         8.44770257072351    4.18631437027770    3.67715679974914
H         8.78630887746892    4.65232737213743    4.59952159703682
H         7.60793700740022    4.75845025729474    3.29304235730442
H         9.25440370718033    4.22471153403227    2.94739975223278
C         7.49006243801710    2.09292210049515    2.65647497907456
H         8.24261950832422    2.13245673076066    1.87220278404555
H         6.60299363575010    2.61690325933862    2.31224765461743
H         7.23374686180600    1.05104862873781    2.83137012677865
C         7.13971085171875    0.44604936899029    6.19678058563778
H         6.84244753546334    0.58059181159258    5.15231317620818
C         7.61678515253578   -0.99207103785377    6.40570990858962
H         8.37189420424420   -1.25441190858019    5.66447721661388
H         6.79004488267738   -1.69274379458410    6.31778125957338
H         8.05770448850463   -1.09770411485633    7.40754224863711
C         5.97173503930096    0.78340329882150    7.11586331231676
H         6.26369180467293    0.63842352083464    8.15319845721239
H         5.12318439881419    0.14069992564890    6.89886471919565
H         5.66905864948046    1.81919803426781    6.98486450956395
C        11.68960152342036    1.79934001270914    5.68915274145488
C        11.80531561779791    3.16639843888529    5.41635207572930
H        10.95134542857012    3.81232122382520    5.55733602124366
C        13.01340059692477    3.70389449187082    5.01834399518806
H        13.09153288275831    4.76277624589427    4.82474743579317
C        14.11655724909070    2.88039985246583    4.88260193927087
C        14.02525268710310    1.52424897079163    5.14312314071549
H        14.88944074714342    0.88723808871537    5.03096014001577
C        12.81962477006371    0.98675638456360    5.54787602941426
H        12.72829218453957   -0.07690524817156    5.73475553393039
I         5.21862203190507   -3.70784466741155   11.27469062834892
Cl       11.04642189714034   -1.82095245544001    6.42117444228700
N        10.68465473785695   -1.26165412361376    9.37121001585060
N        12.03797006474167   -1.97527542703738   11.12376707391150
H        11.19237733104483   -2.05566771735947   11.67198756764588
N        12.96139205859860   -1.36946853527175    9.05703684171878
H        12.67139739333709   -1.28323400514279    8.07261351450164
C        11.86784056759653   -1.53549318697717    9.85487647457198
C        13.16710498986646   -2.73989193816996   11.62217932133510
H        13.93450359563566   -2.73007489043800   10.84449158489711
C        12.74311311805632   -4.18626954018072   11.87765760022608
H        12.40461022146394   -4.65214565942744   10.95518382615466
H        13.58282729142483   -4.75847165049652   12.26178580800294
H        11.93632783418531   -4.22475710259210   12.60731672199980
C        13.70063375472512   -2.09299801784172   12.89873373635095
H        12.94796861439247   -2.13262378932150   13.68289688643034
H        14.58765351053637   -2.61701834503487   13.24302748542017
H        13.95697334939196   -1.05110385655726   12.72399398871685
C        14.05138118361805   -0.44617571046094    9.35819415056372
H        14.34869404998801   -0.58082982181893   10.40263035482455
C        13.57432641958760    0.99198276970882    9.14941662394312
H        12.81906808771596    1.25418884462618    9.89061801768656
H        14.40112178521202    1.69261058335431    9.23763922444388
H        13.13361035314768    1.09772902525772    8.14745751775759
C        15.21926638243528   -0.78349975789201    8.43899661489660
H        14.92728071785747   -0.63813444006467    7.40172575059531
H        16.06796906540155   -0.14105174334515    8.65614601242077
H        15.52170197830248   -1.81940495713151    8.56965625714155
C         9.50141289703202   -1.79924294270209    9.86571837949039
C         9.38571121474224   -3.16631999502709   10.13842138242367
H        10.23971076858267   -3.81220202349449    9.99743966437640
C         8.17760255795113   -3.70387216198019   10.53627616206119
H         8.09947496614926   -4.76277625131130   10.72974509239517
C         7.07440858961676   -2.88041505908440   10.67196684648676
C         7.16571898017598   -1.52423219851921   10.41160597794680
H         6.30150787696371   -0.88724992571984   10.52375125566904
C         8.37137182584262   -0.98668023689918   10.00701515582078
H         8.46271529787628    0.07699549256152    9.82023876482371

