80
CSD_code = EDOQOE | q = 0 | S = 0 | Stoichiometry = C32H36BClMoN6OS2 | MND = 7
Mo        2.15886146608333    2.68420293646240    4.83709316604477
Cl        3.49011781885662    2.57011448821825    2.80980211253193
C         1.78370523040731    4.72548753994594    4.62035127903244
C         0.66608504665552    4.04495604231874    4.41756759209842
C         3.52282253101599    3.71063590206673    5.74166219734702
O         4.27384606129410    4.42759499467028    6.24315969226884
B         0.92906464042756   -0.19798598481738    5.79908926039086
H         0.48965035739152   -1.23015930866752    6.15700822155116
N         1.08118376745466    2.16006646618891    6.61989416882288
N         0.56629212476563    0.92705275266162    6.77964556646567
N         3.15212909623906    0.87846272055388    5.38909700843807
N         2.46118538794303   -0.23070471617499    5.72315450871885
N         0.86922726728529    1.29366647350701    3.80795581701581
N         0.42021726752712    0.17786273006808    4.41046116886759
C         1.00445480664467    4.34706765623204    7.79938206229948
H         2.07933290198306    4.49613886268232    7.71014110079732
H         0.67473187490453    4.69889701164003    8.77362243148271
H         0.51529021888278    4.95345571422843    7.03506523880383
C         0.65850007971041    2.91309296945610    7.63704881811729
C        -0.15321855146920    2.13733714382353    8.46908587726373
H        -0.64570782004616    2.45265106258553    9.36621878384412
C        -0.18462609364778    0.87935424656798    7.89647618364611
C        -0.89897037581630   -0.33415574081830    8.36848325920456
H        -1.58994042926713   -0.69367829330429    7.60816878285197
H        -1.45879282510803   -0.09632370199965    9.26858213402886
H        -0.19555265684867   -1.13418930037910    8.59174060770791
C         5.55942360590958    1.52151948907811    5.15868253065432
H         5.37090805828522    2.06800428527640    4.23543903825563
H         6.49317217873123    0.97217664194183    5.06608246383955
H         5.66053465049983    2.24304061972414    5.96783150630475
C         4.45407469957874    0.57254546499178    5.43728552358601
C         4.59039044004625   -0.76781894980017    5.79939449817689
H         5.50416296827096   -1.31383811720160    5.91633683858916
C         3.30382036500533   -1.24536497278250    5.97485322326339
C         2.86986305468560   -2.61099276079133    6.36715958244607
H         2.30236641169271   -2.58368492185498    7.29565506967728
H         3.74343251574001   -3.24163787633222    6.50650859615593
H         2.23801607452680   -3.04928532183190    5.59685077415636
C         0.58267166404580    2.39683736677266    1.57513733008966
H         0.95647490600592    3.31467868292177    2.02751388506065
H        -0.34123770008670    2.61006068486562    1.03872792045735
H         1.32527010480244    2.05477273728438    0.85412331226305
C         0.34372903825244    1.33351787792511    2.58689721236847
C        -0.47463112304279    0.21201588109064    2.40548544959351
H        -1.03747724470472   -0.03817627242936    1.52912270242441
C        -0.39743903157803   -0.50290806779277    3.58295291013245
C        -1.06712646044759   -1.78024622801979    3.94046078058404
H        -0.33247372028097   -2.55790519845174    4.14218591370847
H        -1.69776827892286   -2.10040600967441    3.11554121109562
H        -1.68363082275486   -1.65836215986186    4.82960367566870
S         2.37584140857297    6.33228205821151    4.58645861630577
S        -0.94188312598940    4.44211906620779    3.95212101406623
C         0.82213750936804    7.33417166979104    4.59939947738006
H         1.14356944005462    8.31586882293156    4.24989275289397
H         0.13600697920652    6.89240086423380    3.87779208424238
C         0.22468403588764    7.41544332349785    5.96699341199374
C        -1.09805502209601    7.05506043110682    6.19109958632398
H        -1.71000342884360    6.71801183816029    5.36777814097761
C        -1.63715977910400    7.12559274317590    7.46427220179208
H        -2.66703657650959    6.84053616585093    7.62096095146448
C        -0.86040315257152    7.55499643451976    8.52594332212655
H        -1.28077480828913    7.60779564996295    9.51959883078400
C         0.45857654206296    7.92061535159094    8.30936432186446
H         1.06866477434510    8.26015282296370    9.13329024075034
C         0.99719109874787    7.85214218436662    7.03862700044416
H         2.02788479010191    8.12649808605837    6.86785269762883
C        -1.87925978180963    2.93806380095216    4.48137661707790
H        -2.18745178667799    2.40656351712911    3.58164436728596
H        -1.17835092990835    2.33754351473811    5.05867891999328
C        -3.04512722645475    3.37102913054260    5.30404025958725
C        -4.31009673233773    3.48609759762257    4.74085507359608
H        -4.45651683332957    3.23044784543011    3.70108887332938
C        -5.37866082558184    3.92505878030238    5.50208707978936
H        -6.35786151628159    4.00929353033471    5.05422422988750
C        -5.19371537937429    4.25764959192774    6.83313960018636
H        -6.02834065138290    4.60072132466703    7.42650375805847
C        -3.93428510707843    4.15106577552553    7.39947182147254
H        -3.78294961935366    4.40891946791450    8.43756075936756
C        -2.86548742121106    3.71491552470362    6.63918969072342
H        -1.88245242218948    3.64089954275521    7.08080531011476

