53
CSD_code = EDOQUJ | q = 0 | S = 0 | Stoichiometry = C23H25N2O2Rh | MND = 6
Rh        8.57122273721534   10.73591650051377   18.10494089928426
N         9.43693907845548   12.42189096614953   18.95401772990141
C         8.83418828319864   13.23049332615980   20.00339247284387
H         7.89270582924478   13.68084374740071   19.66869553492866
C         9.89338685848577   14.33132546296005   20.24967745131189
H         9.60105900430862   15.29412659522639   19.81327305615461
H        10.11807546087736   14.47051919742564   21.31042240029244
O        11.05063142900819   13.86130557341784   19.59278129037359
C        10.70269470758733   12.76993295085630   18.85953134322511
C        11.70709857914314   12.16645757018461   18.12251485659240
H        12.68491700316091   12.61143926893520   18.12911142959847
C        11.51095234584531   11.01602140249115   17.37817471140351
O        12.57100102444845   10.56433438940598   16.65566836987194
C        12.17394619629771    9.38341666129680   15.99261740530863
H        12.70109217468801    8.53014045217623   16.43663057254665
H        12.44208183061957    9.46181339234706   14.93583725854052
C        10.64493859893285    9.30875579797789   16.21745611019116
H        10.36046075035340    8.30197942343190   16.54428955114568
N        10.41848368560330   10.29014868612077   17.26832391513763
C         8.57910808868380   12.44322386686332   21.27669221163964
C         9.03277739083399   11.14114354778143   21.43996892912773
H         9.56444113957300   10.64879944945248   20.62946855983024
C         8.79694393840702   10.46414209768442   22.62394936726236
H         9.15226422062327    9.45083980291871   22.74056295553058
C         8.11181566702381   11.08072902266681   23.65659745682823
H         7.92895683644377   10.55162693838673   24.58015882650597
C         7.65749653332494   12.37990938331330   23.49984625999572
H         7.11753023874777   12.86579086328048   24.29942786511191
C         7.89020952741817   13.05714877281034   22.31685322512038
H         7.53054025635759   14.06962346575672   22.19345577959382
C         9.90065148533197    9.63840626991909   14.93508800293765
C         9.18778797279154   10.81934075511563   14.77927391745339
H         9.13048185011549   11.52814358502568   15.60229691075492
C         8.53798696337587   11.08961589841471   13.58743729071900
H         7.98347534065351   12.00993753757596   13.47738359089213
C         8.59829519595190   10.18819258049916   12.53894508789464
H         8.09168098785594   10.40068129164948   11.60918152863137
C         9.30875699282447    9.00870113875283   12.68806075721920
H         9.35662270978157    8.29815267539358   11.87581689848862
C         9.95585086158535    8.73553565919276   13.87919331829007
H        10.50588932114144    7.81174365745981   13.99612135055874
C         8.20539550070851    8.66994339679185   18.41184167102616
H         9.14752413034900    8.12846350449064   18.43023538811476
H         7.59371090993310    8.52259848723958   19.29844541506079
C         7.61452964775014    9.00739079405370   17.20026762764269
H         6.53616541114612    9.10014007693209   17.14338241830209
H         8.06639519054023    8.70840529554443   16.26442504858167
C         6.63236623190828   11.13770229302416   19.00039657141652
H         5.99754564803831   10.26060878565093   19.05019845656043
H         6.69631767138858   11.67123089294881   19.93870887400933
C         6.76965444148260   11.80993210335132   17.79218065524315
H         6.97557178768957   12.87699202026366   17.77867128301449
H         6.26278433278910   11.44630272533580   16.90181014202809

