52
CSD_code = EDOSAS | q = 0 | S = 0 | Stoichiometry = C23H26NORh | MND = 6
Rh        9.31569646222254    0.74237844605682   21.99810197895879
O         9.19960283730142    0.43308318721752   20.02103910186019
C        10.08542614433868    0.55595362016295   19.10792070242105
C         9.72962126348868    0.24475600328575   17.76696140011049
H         8.71412514054041   -0.07795014638066   17.59000441337050
C        10.63036091425230    0.34028640541388   16.74504205882670
H        10.32913432101991    0.09244996462150   15.73690800545649
C        11.94603798963588    0.75607291889277   16.98860524484863
H        12.64943046182218    0.82635573250068   16.17292837666800
C        12.32434981708981    1.07065607354950   18.26418235425401
H        13.33784764629229    1.39299895319043   18.46419264551812
C        11.42481811160319    0.98675263466368   19.34674737915362
C        11.89447480300873    1.35087506201507   20.63157713016042
H        12.94111971949232    1.66795293421064   20.63086853432224
N        11.27729747232806    1.36072910028003   21.77433052859049
C        12.11539913806092    1.87843766502042   22.86933549999829
H        11.61179305787546    1.66401826435298   23.81571480309311
C        12.21136434579213    3.40115278954519   22.74016331107808
H        11.20627195513257    3.80649771233591   22.63179793726262
H        12.78850933494316    3.68739826217437   21.86377275852734
H        12.66576112435826    3.83429344470127   23.62772658433571
C        13.44733888925917    1.15358344107677   22.92358401874438
C        13.43219913562991   -0.23823417082493   22.86659550158329
H        12.48539734021371   -0.75089835078211   22.76025355998838
C        14.60669145209076   -0.96222486264695   22.92880021606895
H        14.57636678785758   -2.04068360441713   22.87919950571586
C        15.82020409892799   -0.30588976174595   23.05534474509806
H        16.74032080889003   -0.86905901303973   23.10420335370396
C        15.84507769597190    1.07504355636836   23.11836052277065
H        16.78681947664735    1.59525871067798   23.21699496032004
C        14.66709330142032    1.80193550271995   23.05273297987966
H        14.71306274060586    2.87863791104958   23.10269419074205
C         8.98703913017560    1.49651508341632   23.96291591162817
H         9.67754774746699    2.30688513149825   24.18895866604973
C         9.47094765551135    0.18658700959867   24.02704378518012
H        10.50850080600796    0.03366675599050   24.32671353405411
C         8.61893085563647   -1.02761080353622   24.33198385825480
H         8.38014995026799   -1.04247709491506   25.40159129140476
H         9.21899899776060   -1.91725416012406   24.12429863905475
C         7.33011053207924   -1.08893953485060   23.49477722714803
H         7.06059897874772   -2.13467369060603   23.33535135732171
H         6.50205833815686   -0.62024897388209   24.02753642363668
C         7.50743846262086   -0.41156878544651   22.15418019146953
H         7.50998568821791   -1.08244541426978   21.29678510455916
C         7.18950915634342    0.91751320299574   21.92077976188497
H         6.93663150235347    1.20420138291524   20.90061613379216
C         6.68964114516740    1.88141451801244   22.97037678799983
H         5.64388683737298    1.65428738938535   23.20426805803883
H         6.71522240421268    2.88805016155370   22.54633714190143
C         7.54141746457165    1.85503830893402   24.25105260791910
H         7.50572267528670    2.84089428477401   24.71943172686501
H         7.13264788397841    1.14464684230093   24.97041748838239

