93
CSD_code = EDOWOK | q = 0 | S = 0 | Stoichiometry = C38H42Cl2N4O6Ti | MND = 6
C         6.47744935304405   12.23106855888638   -2.40653413891576
H         6.11507815033610   12.31381969814415   -3.43799344877759
C         7.39753340888123   13.25405559150760   -2.00422242444314
C         8.03855832119462   13.20970927985053   -0.72485503749295
C         9.07207365818259   14.14639812226900   -0.46526010602352
H         9.59400160795105   14.06605947498794    0.47599755402336
C         9.39464945627455   15.11860701257710   -1.37009407627252
H        10.17099400687742   15.84167599455963   -1.16954544296967
C         8.71045786218085   15.18873781798292   -2.59190288245250
C         7.73906073957182   14.25837387478938   -2.90906815907883
H         7.25149610941608   14.31928187363374   -3.87175246376735
C         5.24372143134816   10.30124985356023   -2.36775897008019
C         3.94888430671615   10.69642113497575   -2.74043612123132
C         3.15070224101991    9.78056745497248   -3.41434923664880
H         2.14667026850670   10.06148892435358   -3.69023485088489
C         3.61754469662266    8.52544882169173   -3.74609882588419
H         2.98548535159962    7.83633018344956   -4.28526398115531
C         4.89730278568916    8.15447580071248   -3.38375549839388
H         5.26015244968879    7.17556221675483   -3.65409141997489
C         5.72344241384465    9.02328884402475   -2.68577350644927
C         7.12853828194058    8.59343376000332   -2.32774493668168
H         7.58159693909630    9.35823256799313   -1.68110406025675
C         7.10178159198344    7.27196030832451   -1.55528415739369
H         6.51227349834222    7.38816765622114   -0.64716006598539
H         8.11011098391387    6.96955599500208   -1.28360423502114
H         6.66345842178013    6.47589779816447   -2.15054276600058
C         7.98086434248343    8.47584150053429   -3.59511658196182
H         9.00004848092283    8.19327715452565   -3.34057217025949
H         8.00966841872476    9.42508257630600   -4.12719946202374
H         7.57329656198833    7.72169507373215   -4.26394330077301
C         3.35970368121171   12.03874720184164   -2.37228119987718
H         4.11119117906325   12.65532068364372   -1.86922895847169
C         2.87955796711094   12.80360493613506   -3.60794665143063
H         2.06360949758862   12.28269286464850   -4.10199867442895
H         3.68707781651339   12.92964405042455   -4.32687060882363
H         2.52534276026389   13.78833528692025   -3.31337296614195
C         2.21608307564209   11.82282833822595   -1.37644465905967
H         1.87106127718786   12.77975475174451   -0.99374234263847
H         2.57054970499276   11.22420090907462   -0.53901349576367
H         1.37997808570621   11.30703368304634   -1.84197890599884
C         6.82230772681176   10.02413463940201    3.24290725715749
H         6.58283337420850    9.93848154388162    4.30937901654002
C         7.70641406406999    9.01489989230008    2.73829884372140
C         8.19376935520902    9.06471255170735    1.39305744899028
C         9.20483862353884    8.14322456656538    1.01694824210936
H         9.61287198376767    8.22838087063423    0.02145205122531
C         9.64529192052618    7.17908292371214    1.87975082554080
H        10.40428059736664    6.46730576263825    1.59155041049749
C         9.10861466108638    7.10252595689982    3.17278263979919
C         8.16624439412250    8.01905636938322    3.59903063464290
H         7.79457004668571    7.95393005764222    4.61185287082270
C         5.55713140700017   11.93094232777117    3.34411021227139
C         4.32269505778328   11.51064881244287    3.86505532027466
C         3.58838963593456   12.41295518293771    4.62445059470819
H         2.62930113237494   12.11240561167575    5.01553297738652
C         4.06332107285760   13.67938206388618    4.89635213790224
H         3.48308545028577   14.35792315899241    5.50297683119732
C         5.28432736106144   14.07530115043554    4.38731778839340
H         5.65468901326840   15.06318297920467    4.61078069615403
C         6.04289569603478   13.22035222973432    3.60111151004416
C         7.38767244979429   13.67791986026928    3.08205487608030
H         7.78030291130777   12.91839350321965    2.39127437007598
C         7.24318730033895   14.99312192178836    2.31185763823378
H         6.55589406582998   14.85815293832720    1.47813624803343
H         8.20670198894711   15.31506449285216    1.92453371856405
H         6.85864392334555   15.78365667784232    2.95011245234946
C         8.37714440814900   13.82303095277533    4.24239817651264
H         8.03365575642044   14.57471884912233    4.94890148497361
H         9.35433180285812   14.12349756732082    3.87065228629203
H         8.48634007887147   12.87913780438075    4.77354524415183
C         3.72348900640514   10.15448588602648    3.57098764843785
H         4.42307759261277    9.55239748955015    2.98266896373545
C         3.41067635059737    9.38429981014677    4.85607461408934
H         4.30102224996458    9.27640624398803    5.47290915773024
H         3.04319006577123    8.39185572097966    4.60718540766327
H         2.64994223743431    9.89089997494229    5.44417973948401
C         2.46508610636229   10.34137040942737    2.71797071968232
H         1.67804741128292   10.83834596524217    3.27957423776331
H         2.09980754988163    9.37573512219251    2.37837032248306
H         2.70358644444875   10.94612551817450    1.84468056399727
N         6.36575594190372   11.03311012022272    2.58953735252843
N         9.56452171866319    6.08307745491796    4.07051938330444
N         6.11633999723484   11.21381846724712   -1.70790963436002
N         9.04376081710293   16.21641454190919   -3.53311670912418
O         7.75041778094301    9.92941666583213    0.55724569717450
O        10.39424010155686    5.29819019773408    3.65915855099885
O         9.09544831787091    6.06719355601873    5.19089152149276
O         7.70901391527938   12.33654318206123    0.15369057052577
O         8.44724482356839   16.22720656513744   -4.59120246414000
O         9.90411324610512   17.01293758929512   -3.21840766944003
Cl        4.87919567576840   12.75376439932899    0.57957627832435
Cl        4.89994169310086    9.46587124570014    0.45697016193036
Ti        6.36788251105303   11.12238302407805    0.43312401689496

