49
CSD_code = EDOZUU | q = 0 | S = 0 | Stoichiometry = C16H20Cl2NiO10 | MND = 6
Ni       -0.35437466354023    1.69909966928262    9.11110520813526
Cl        6.18938997621039    1.60740324802608    1.28214924513109
O        -1.28978299879077   -0.28185733250357    9.28739188746959
H        -1.39217310719422   -0.43659173830379    8.32523477757744
H        -2.15970589881463   -0.04158368945759    9.62856226260324
O         1.95403614150379    1.39495667670665    5.32703855736515
O         1.51338114429678    1.22560126140025   10.38886517520177
H         1.32725425158178    0.38165768838439   10.81044704020955
H         1.37223659784425    1.92677889967046   11.05292096054343
O        -0.98939854850895    0.04795407018947    6.58339757949390
O         0.58819065492911    1.23664413401960    7.59281261187704
C         2.91743709898268    1.36030948776222    4.36892501744861
C         1.12463937155525    0.27204687448750    5.49140156425116
H         1.70823055447607   -0.62090453597301    5.75860985821221
H         0.53798430425076    0.06063597040503    4.58814976494291
C         0.14729200948019    0.53760641271833    6.64924369728889
C         3.69243251467620    2.51604717072950    4.24633644889395
H         3.48610187966138    3.34309419151199    4.90624303113015
C         3.16831850427682    0.28340832577829    3.52480778587154
H         2.58874371761008   -0.62346836091667    3.59003443700155
C         4.17611453860994    0.36245167447272    2.57764855220889
H         4.36766407393480   -0.47454166571611    1.92478472769943
C         4.93401832416297    1.51359176325609    2.46875835933268
C         4.69452782064714    2.59562693294989    3.30381386591345
H         5.28914888998707    3.49068867740905    3.21294017234601
Cl       -6.90525026950724    1.79213392416794   16.93303577994745
O         0.58158835894901    3.67977290995565    8.93578694610964
H         0.68292490718012    3.83464977450048    9.89801932852881
H         1.45200381395231    3.43944423823933    8.59581320470353
O        -2.66405793025132    2.00289733536302   12.89416306083151
O        -2.22225468755937    2.17243431820573    7.83375770773380
H        -2.03695644815619    3.01616209524490    7.41155251932253
H        -2.08149979854473    1.47092621635356    7.16992003617873
O         0.28035346283715    3.34974853885927   11.63957449662426
O        -1.29711370727765    2.16169481207641   10.62923481293078
C        -3.62879153193112    2.03789099782297   13.85093259413507
C        -1.83425888657775    3.12565538690153   12.73067063829658
H        -2.41750780463592    4.01882633370311   12.46344768006525
H        -1.24807548883991    3.33660365549027   13.63432463873133
C        -0.85638155196957    2.86029504594240   11.57322143098887
C        -4.40462355864256    0.88257794957827   13.97221936328664
H        -4.19787911385653    0.05553600917740   13.31243965917332
C        -3.88020185295827    3.11475100020471   14.69494018735470
H        -3.29995989326149    4.02126888806556   14.63075276576829
C        -4.88935969366655    3.03610767914812   15.64068052466258
H        -5.08133219124388    3.87309056190473   16.29342563084384
C        -5.64809987231840    1.88539829583007   15.74827070528080
C        -5.40807869688009    0.80339032741600   14.91333298181883
H        -6.00339471665655   -0.09131210044289   15.00316071854729

