58
CSD_code = EDUBAI | q = 0 | S = 0 | Stoichiometry = C24H29Cl2OPRu | MND = 9
Ru       11.96291765145926   10.85135026136028    3.00938683572907
Cl       11.18978612835537   13.07682152798561    3.16498827111593
Cl       14.14507891556744   11.57093252166849    2.49635150114439
P        12.62172082585654   11.15867850205546    5.15950135308830
O        11.41673423259953   10.89244003485606    6.18841005584726
C         9.84746004146019   10.19804002239266    2.46435414798572
C        10.55587940054277   10.43478738504834    1.24892658445162
C        11.75868248078315    9.78292911999951    0.98818165936133
C        12.31677403658152    8.86253593661199    1.92375216729235
C        11.60857409095950    8.61270102231897    3.11126214799608
C        10.38124307544923    9.27586896377668    3.37911763659859
C         8.53537097912289   10.88213708074671    2.69975097500968
C        13.54878899665600    8.07364104079146    1.54960019081540
C        13.11834448941726    6.67553267489478    1.09038248636654
C        14.56420848446589    7.99287454534785    2.68789070562067
C        13.76393936622308    9.88755540517964    5.75790370560097
C        13.31053903505778    8.75169911677987    6.41573592219496
C        14.21338475588160    7.78240387484389    6.81553596370678
C        15.56431426032765    7.94015089353243    6.55128228175409
C        16.01600273173766    9.06974276876684    5.88710000829554
C        15.11919820118070   10.04349864900645    5.48754704692724
C        13.39190526044359   12.68673755504716    5.79930006264828
C        13.53924967320019   12.76297107623631    7.18277021908220
C        14.10638063472676   13.88402010783663    7.75658794863901
C        14.53184340969608   14.93083545920077    6.95282473049013
C        14.39159108993045   14.85168747479925    5.57803603548635
C        13.82210466606329   13.73162603701372    4.99523571848187
C        10.27350708313107   11.75565137287285    6.18289670304325
C         9.16577918573638   11.07971616107639    6.97098531242403
H        10.12484182090941   11.10388870676486    0.51144050559030
H        12.26618180579558    9.94263748669654    0.04226436041592
H        11.96281110268525    7.85932958341628    3.80541981032854
H         9.82076676656300    9.01532212215742    4.27091104898345
H         7.85126509693087   10.67972988327570    1.87555082376289
H         8.07846250624948   10.55044462389969    3.62981293595874
H         8.69047966541905   11.96202166223094    2.75119017471178
H        14.03320949437708    8.58247419924563    0.70871172127971
H        12.41261646425505    6.73945404424560    0.26388179358690
H        12.64530566093319    6.13355443121069    1.90723027632717
H        13.98641496060042    6.11080083537082    0.75967587586600
H        15.46659705008391    7.49527599696118    2.34164250861457
H        14.82743775383695    8.99639271986099    3.01590066308216
H        14.17539691489742    7.43785274825973    3.53904253256627
H        12.25596399022580    8.64260303299942    6.62139397540181
H        13.86329649634483    6.90071568638375    7.33351043471986
H        16.26563221887050    7.18011868019136    6.86319672875561
H        17.06859412027985    9.18931650263868    5.67873373858243
H        15.45138240613934   10.92389150693331    4.95502010944091
H        13.20604928392151   11.93730894787894    7.79786241398070
H        14.21880445303745   13.94296065889825    8.82961489037610
H        14.97409475928900   15.80799328505670    7.40240286416692
H        14.72489280249529   15.66608828101434    4.95264677986020
H        13.71508424823365   13.66721122239519    3.92288554339161
H         9.96365118824699   11.95388577087659    5.15017559084008
H        10.54787916746442   12.71073189013556    6.64299566086043
H         8.89260551295820   10.13364537323053    6.50995677285533
H         9.49574569804189   10.88354498839659    7.98794236768447
H         8.29233340835269   11.72453853732648    6.99928872087701

