95
CSD_code = EDUCOX | q = 0 | S = 0 | Stoichiometry = C42H42Cl2O6P2Pt | MND = 4
Pt        8.85455148263068    5.31650023338394    5.10287010372794
Cl        8.60558321168799    3.00101090168672    5.09925837578897
P         7.85578287992341    5.38759283096866    3.04911672498126
O         6.15047609124631   10.72856239505687    1.04010238847654
O         2.96700688730534    1.99368705221942    3.17019901319405
O        11.51671239268916    3.37933605200738   -1.19422479322494
C         5.95321820869784    3.60005954237132    1.92650255962055
H         6.52344152140396    3.61619897204084    1.00932827301868
C        10.07659373364695    4.09051069430890    2.03673752798109
H        10.29843429161926    3.89771238371751    3.08039705136943
C         4.81195360529755    2.83299665019467    2.01282714793588
H         4.46790705770209    2.24847599624353    1.17381664994445
C         4.07446562143636    2.78188829342024    3.19830562941850
C        10.91685464258248    3.63099711567674    1.04842343230174
H        11.81175976367454    3.07733741792917    1.28502087044731
C         4.50345293136369    3.51488542629809    4.30204488047387
H         3.96331189771697    3.48624375740228    5.23525797820779
C         8.92394612894501    4.80189841514606    1.70904623466464
C         7.25592665219083    6.97288776548069    2.40351923355805
C         9.47954128636113    4.59471579234280   -0.62653637841032
H         9.23302892194408    4.80586775684434   -1.65552564801031
C         6.37927063919121    4.33707257447588    3.02555680376070
C         7.79671859159528    9.14274134207107    1.52188118376579
H         8.51212476255690    9.87636437775715    1.18528422726631
C         6.44079071755305    9.48445371592014    1.50610917946510
C         5.64951501591440    4.27993624456769    4.20751547904262
H         6.00374216348967    4.83758970159495    5.07042741737798
C         5.50118345206917    8.55997142172704    1.94918214491069
H         4.44816550264813    8.79510038416586    1.95486947795288
C        11.28081253468531    3.58253379429833   -2.56649881697056
H        10.33820533567879    3.12575889776988   -2.88460833848687
H        12.10728719606611    3.09623922826470   -3.08226385058348
H        11.27355719735366    4.64755906589183   -2.82013166069641
C        10.62514843423898    3.87444411660655   -0.29650405031384
C         5.91250560554456    7.31675936805366    2.39885410552422
H         5.17374732689657    6.60740875194753    2.74547696060857
C         4.81005242149199   11.15563672318519    1.04571175640735
H         4.18633312769651   10.53420441251165    0.39450566375348
H         4.82395008594603   12.17493461242444    0.66287340330051
H         4.39286761726064   11.15530538834059    2.05766182587502
C         8.64126430925920    5.05570191811854    0.37220538356143
H         7.76408713722139    5.63068784295264    0.10751157062541
C         8.19767238068246    7.90735304626723    1.97067116208323
H         9.24767378286693    7.65208241420545    1.99689288443984
C         2.20638427126968    1.85754707829145    4.34655431795028
H         2.80157012386482    1.43568770811604    5.16231918595423
H         1.39909551696989    1.17070382169828    4.09712245067146
H         1.78038111328517    2.81517393467351    4.66344741242545
Cl        9.10024345467261    7.63194385803777    5.10656290136596
P         9.85029205314581    5.24552048682781    7.15708525111908
O        11.55627423650983   -0.09579771475404    9.16434238752449
O        14.73733796748974    8.64183226247147    7.03393761729652
O         6.18674033434977    7.25463208881646   11.39781877985866
C        11.75137107147671    7.03549120878439    8.27802735222209
H        11.18079704341407    7.02002900144792    9.19499256679526
C         7.62864593225906    6.54163210441379    8.16819618790389
H         7.40704684533060    6.73345583268434    7.12429738485575
C        12.89214750455817    7.80320886684598    8.19119502419804
H        13.23547940092717    8.38903008214865    9.02958895236239
C        13.63014155900839    7.85325297558421    7.00598415104359
C         6.78768687345925    7.00133548034593    9.15578612144754
H         5.89247251895400    7.55415561361763    8.91841813654319
C        13.20184257187738    7.11893641456629    5.90284658974361
H        13.74215163144180    7.14713984308851    4.96970535114197
C         8.78172771619360    5.83136048417790    8.49683599803394
C        10.45069448914338    3.66059221176759    7.80301443087396
C         8.22500474294672    6.03994685835386   10.83205930122111
H         8.47116620896847    5.82971796252318   11.86133340836424
C        11.32624258350613    6.29681615090492    7.17972713784145
C         9.90999728252509    1.49021501559651    8.68342858767479
H         9.19460885720468    0.75626775468208    9.01934819014543
C        11.26596864174605    1.14868820738045    8.69933782413132
C        12.05617663711610    6.35328969736538    5.99784023561155
H        11.70241425885800    5.79464449130678    5.13537820331293
C        12.20558553785708    2.07366933981166    8.25731608027265
H        13.25865909024230    1.83876419621500    8.25204483648110
C         6.42216367274114    7.05363810932251   12.77049180675427
H         7.36458603673868    7.51102308965031   13.08824762098890
H         5.59542568556040    7.54070592412613   13.28512473328184
H         6.42939296657472    5.98903109384089   13.02587051497080
C         7.07906303434954    6.75922451303178   10.50102903939918
C        11.79420287157582    3.31705602789192    7.80815668662019
H        12.53295325391058    4.02676089181313    7.46222694841387
C        12.89639465875532   -0.52379529294731    9.15625894098964
H        13.52127862039030    0.09553695236475    9.80835258003699
H        12.88217510289057   -1.54404297617898    9.53655658908689
H        13.31246523984476   -0.52122077963722    8.14385791849545
C         9.06402856071190    5.57875733402059    9.83398883175550
H         9.94150444368505    5.00460143557374   10.09952200369471
C         9.50898119538269    2.72575821376330    8.23514488738946
H         8.45893885104748    2.98083381912990    8.20862259478971
C        15.50030254840397    8.77506238245812    5.85877990613004
H        14.90746760570185    9.19709426838192    5.04138840460231
H        16.30846445177852    9.46065172908167    6.10887258585976
H        15.92503858141595    7.81623515865569    5.54384388221844

