63
CSD_code = EDUCUD | q = 0 | S = 0 | Stoichiometry = C30H22Cl2N2O6Pd | MND = 4
Pd        4.79454742608221    5.84781531831526   32.38741894172155
Cl        4.45684864087666    4.86196470998795   34.35643202156344
Cl        3.89119541072765    4.11635500222357   31.28894345246577
O         5.15351535368414    9.42139575374635   29.35686244646386
O         4.17899592369837   11.38988800239309   28.80662415829129
O         5.92985630245569   12.16538681444976   34.88763553089156
O         2.66904277804147    9.61005868247069   32.93706230692993
O         2.63325598777828    7.34534044410985   32.96226736802996
O         1.33705823093495    8.47260012689491   26.88897265490614
N         5.00889543258142    6.81275723851490   29.51179066889455
N         4.85327497876866    8.21051705094556   34.19402805871588
C         5.05732968409575    6.54597351511571   30.65066839228732
C         4.87771430879067    7.35917178586701   28.28221033876924
C         4.67176885349775    6.56752698394766   27.15919297179432
H         4.62900098414727    5.49609767296294   27.27546222703725
C         4.51492972568781    7.17049701289577   25.92517277665529
H         4.34562773093702    6.56256041814019   25.05055624567442
C         4.57646294957558    8.54909114122768   25.81139926163024
H         4.46199987012996    9.01530431847201   24.84494021196764
C         4.78616868648444    9.34918977036634   26.92518004185003
H         4.83312210990224   10.42170337668678   26.83004912437028
C         4.92788266552422    8.76217809748819   28.17003687096739
C         4.74359792671357   10.68596664833430   29.60692630240129
C         5.06246429036637   11.06845282166108   30.99291579873292
C         4.50124771500559   12.23414084912881   31.50857243131725
H         3.85549866391267   12.82121411766065   30.87305507427679
C         4.75542651250845   12.63381565683590   32.80436166907439
H         4.29482257658862   13.53355246620693   33.17949139150438
C         5.60610344203862   11.87586053192656   33.60790412351636
C         5.40532034580544   13.33254421286829   35.47887945452177
H         5.72747612082963   14.23069992343715   34.94382259767428
H         5.80625915298156   13.35255150255854   36.49051984994713
H         4.31282692286232   13.29995986463592   35.52278487957825
C         6.18674508352009   10.71470065607608   33.08366444318048
H         6.85646405230580   10.15211028743408   33.71456175124494
C         5.90708275971708   10.30487120462170   31.80221232185499
H         6.34653673452962    9.39661690216704   31.41856650895782
C         5.22644851425507    7.35707557448761   33.48407484643820
C         4.13738802588121    9.14113178936958   34.86637715185890
C         4.48225938205267    9.45937978200928   36.17908902521735
H         5.31218259268931    8.94118711786665   36.63304217638099
C         3.77020937979887   10.41261918957055   36.87616930574934
H         4.04272279776233   10.64956170428758   37.89249871994220
C         2.70920316362126   11.06527105543705   36.26704016397644
H         2.14785591944172   11.81201273322026   36.80773604183376
C         2.35752105928150   10.75526873756418   34.96639327744098
H         1.53261342670270   11.25086081390995   34.47836185563840
C         3.05506823215930    9.79106993616614   34.25015644849611
C         2.49597779834225    8.39021669623875   32.36276511723099
C         2.13084283954580    8.48440509066018   30.94678162720708
C         2.01736738382929    7.29056505255473   30.22202734556772
H         2.16409247653749    6.34686579892121   30.73435090010747
C         1.73998216115484    7.32326618563374   28.87789854489456
H         1.66185761240016    6.41507661116791   28.30239080256278
C         1.56164745605309    8.54693361545601   28.21827667276164
C         1.16552090578489    9.66783316485557   26.15940643614941
H         0.26590066919740   10.20289612693468   26.47771655734476
H         1.05412816965487    9.36217728091828   25.12065361107317
H         2.03555030310982   10.32264071658343   26.25739928409059
C         1.62836943731161    9.73322358853703   28.94937522077270
H         1.48331649538303   10.68875263891496   28.47287050034191
C         1.91527735298133    9.69792108311712   30.29870436519117
H         1.97903011101168   10.61945703275869   30.85569933219004

