59
CSD_code = EDUGER | q = 0 | S = 0 | Stoichiometry = C28H24N2O2S2Zn | MND = 4
Zn       -0.48057600366500    5.04241594278311    3.74926338302203
S         1.61458613251316    4.11962268714176    1.94446947773375
N        -1.22134238660072    3.75240974804383    2.34165839933501
O        -1.85626639510644    6.26523222157217    3.42602833389892
C         3.23297988229274    3.82084724472133    2.72494798907360
H         3.61891977580481    4.79882349560673    2.99507443826457
H         3.90488310093241    3.33984650337093    2.02047401855076
H         3.10119505529397    3.21852279180092    3.61744771973662
C         0.83689451493061    2.53909668297862    2.08279707777482
C         1.52920368325257    1.34072493488989    2.01629172764585
H         2.60399723913177    1.34277231795003    1.92713689984232
C         0.84331497326809    0.13974884229346    2.05216770938471
H         1.39109209329706   -0.78911107787940    2.00597079032189
C        -0.53894876282379    0.13000191479343    2.13547140020725
H        -1.07545334260742   -0.80620130097995    2.15568439943830
C        -1.23670566151214    1.32040040100520    2.19998586485476
H        -2.31234868428449    1.31441936992217    2.30115211798381
C        -0.56074253840728    2.53838909011917    2.18395062956379
C        -2.31230569571458    3.97357414564329    1.67457365735933
H        -2.62067103103144    3.22040679842694    0.94073138441442
C        -3.14734481112114    5.10664098344671    1.77345757327263
C        -4.30319003211228    5.14541487611546    0.96121195883372
H        -4.49008890740758    4.30869156397193    0.30082053313769
C        -5.17423039543919    6.19632372605990    0.99768063831823
H        -6.05367282953922    6.20553159833639    0.37226996558961
C        -4.91293875500295    7.27464891827094    1.85689437892243
H        -5.60086265406237    8.10788537469932    1.88375534123181
C        -3.80370889292982    7.28083553577706    2.65240069864784
H        -3.59174122165379    8.10673827951135    3.31414889073981
C        -2.86917902460873    6.20592683057318    2.65205543012584
S        -2.57620854362442    4.12003547837822    5.55415212559982
N         0.25969669496710    3.75254310115269    5.15717594929009
O         0.89517542158181    6.26511911840119    4.07258271026005
C        -4.19484862646336    3.82108507702365    4.77419008906727
H        -4.58081669714070    4.79903745983474    4.50382859285770
H        -4.86663514458542    3.34033651059358    5.47903517069078
H        -4.06330540924273    3.21842033150982    3.88183576320001
C        -1.79865704721811    2.53942603724261    5.41611778234116
C        -2.49106752488119    1.34112076298905    5.48276306830049
H        -3.56585744906186    1.34325070557902    5.57191865631899
C        -1.80528338754641    0.14008347029725    5.44694669911350
H        -2.35313855703732   -0.78872399987539    5.49326598433843
C        -0.42302328592925    0.13021292503925    5.36359349961394
H         0.11340920958062   -0.80603123815894    5.34348322178020
C         0.27483051760312    1.32055075661684    5.29899639831280
H         1.35047401641648    1.31448963581864    5.19785508157653
C        -0.40103239911125    2.53858918005299    5.31493700707884
C         1.35047908732124    3.97372709111189    5.82454760260235
H         1.65860585607532    3.22061153683611    6.55854509367849
C         2.18554904522277    5.10679253476138    5.72587403199249
C         3.34101652400234    5.14570233341008    6.53864578607223
H         3.52777094278678    4.30894212008443    7.19903689117736
C         4.21193846113761    6.19672084547508    6.50258793037517
H         5.09109458968884    6.20602911649700    7.12839731003584
C         3.95096837360484    7.27495119934972    5.64317656729911
H         4.63866331849967    8.10840853610199    5.61684102246359
C         2.84210082765410    7.28101027130175    4.84716337317396
H         2.63027986390819    8.10695663019168    4.18541335055533
C         1.90767289670472    6.20602203142143    4.84712041360837

