41
CSD_code = EDUGAN | q = 0 | S = 0 | Stoichiometry = C15H19CdI2N3O | MND = 5
C         8.27405206831339   -0.71884989487828    0.87144117504611
H         9.01034762048338   -0.87286711122978    1.64986940260119
C         8.23099925844844   -1.53692248545238   -0.24472244551503
H         8.93983234576063   -2.34302806955295   -0.35205057184987
C         7.24758751746476   -1.32415370142585   -1.20403268907638
C         7.10460656416311   -2.21289590158205   -2.39451596989124
H         6.88878110631343   -1.63156185854150   -3.28921299853977
H         6.27307605107952   -2.89996547276003   -2.23349405064988
H         8.00616806484676   -2.79870796204744   -2.55515311445664
C         6.37332841677948   -0.26223217944044   -0.99932547727870
H         5.58012594126939   -0.07732158906946   -1.70718277127496
C         6.49423464257780    0.52095438707902    0.14276056165228
C         5.57766645000287    1.64537419596424    0.41338653358694
C         4.96328721670646    2.35819334102295   -0.61181484798375
H         5.17014113790858    2.11629012435729   -1.64298288240496
C         4.10060786500178    3.40369555293909   -0.30588589325300
C         3.40729755095000    4.17428413862752   -1.38047809858788
H         2.43300624447436    3.72592185378198   -1.57805837029301
H         3.98029103209657    4.15916594120401   -2.30453833972028
H         3.24535290562502    5.20495648900750   -1.07420119884543
C         3.89327021088616    3.69200862491610    1.03951083240678
H         3.23136742933623    4.49015834648531    1.33666208321335
C         4.55627263665751    2.94602536907411    1.99749282668914
H         4.42343677566769    3.15604976176852    3.05211095511385
C         9.08471247034593   -0.27831509642400    5.20265623433730
H        10.01905389255118    0.30275547436257    5.29496472425254
C         7.36920272770648   -1.44042127748032    6.44753578223145
H         7.50362964934116   -2.27924289944776    7.13116064847151
H         7.11931576100364   -1.82466890888957    5.45876725994462
H         6.55118454430538   -0.81386191109415    6.81337802672238
C         9.13765481288227   -0.23153728211569    7.62474093575364
H         8.43680034889185    0.45321955639949    8.10905396099579
H        10.07937488043326    0.28885738198714    7.46409905733409
H         9.30723091749222   -1.08618725820334    8.28204876153722
N         7.42758696563770    0.27966028412223    1.06974616158118
N         5.37781806046221    1.95305790927997    1.69675671216167
N         8.59592995351315   -0.67878125458711    6.36810403803315
O         8.60547081506229   -0.52188744510284    4.10111143433549
Cd        6.49531920159088    0.51200617834727    3.28911696380292
I         4.93381540099639   -1.68329883287810    3.08836182275787
I         6.54206254495397    2.24717348149158    5.36381282504285

