83
CSD_code = EDUHIW | q = 0 | S = 0 | Stoichiometry = C39H36AgBrN2OP2S | MND = 4
C         6.28386163389781    8.08650437676465    6.34777870940122
C         4.64884694168192    6.25592642440394    6.23065906368438
C         3.27534311233497    5.99323734968951    5.70088075022812
H         3.28924215241600    6.04868580377836    4.61290141204095
H         2.57723470697929    6.74955780774983    6.05266025174662
H         2.94779494888949    5.00445015773497    6.00703094475083
C         7.60115685053725    7.79657152409771    2.56791087883303
C         7.81018718172409    6.95384031858089    3.65808008855319
H         6.95801943201606    6.55500864269384    4.19269207692642
C         9.09161206384154    6.61224335697733    4.04274342238636
H         9.24166502198923    5.95275676230488    4.88538631514117
C        10.18096194709127    7.11328054864285    3.34759118283683
H        11.18369475774244    6.84848707808741    3.64923092102699
C         9.98070918810632    7.95431112639128    2.26563723909951
H        10.82808602534675    8.34261353561240    1.71810052469914
C         8.69864153439155    8.30314478359524    1.87981737260015
H         8.55120304451540    8.96498600808065    1.03667175696081
C         5.01550771568917    6.75208937905060    2.01843248909824
C         5.63760881760814    5.52234770902826    1.83118481976073
H         6.71633787011659    5.44924200366483    1.82178430637496
C         4.87211608207535    4.38168503515443    1.66753930065801
H         5.36003400981228    3.42818481525192    1.52586570320007
C         3.48889039746469    4.45674841282580    1.68485179781818
H         2.89881937251913    3.56099586060388    1.56079406184255
C         2.86476833087796    5.68045684970499    1.86510747113422
H         1.78740250990945    5.74576062413490    1.88575540824991
C         3.62472649667452    6.82361017115505    2.03208483322659
H         3.14218224644584    7.78027264855158    2.18718689878307
C         6.01428259364851    8.84000689188581    0.46607205902445
C         6.49662116053778    7.97663345389789   -0.51391007542361
H         6.80678557196021    6.97651100118396   -0.24536244989614
C         6.57782993644187    8.40242336404649   -1.82567903673674
H         6.95353898800655    7.73204027836144   -2.58503706077975
C         6.17980267406974    9.68589237886088   -2.17018954171213
H         6.25007451526891   10.01381428595032   -3.19678114220063
C         5.68792810061038   10.54345041882222   -1.20140781325719
H         5.37264969669484   11.54276329651628   -1.46321580149369
C         5.60118486678328   10.11747563061874    0.11196418085613
H         5.20570567406282   10.77914904502603    0.87534408213592
C         5.05839432563457   13.91782467866687    4.23230817873002
C         5.41510395950345   15.24144510671803    3.98788052977933
H         6.13096949575423   15.47217126039058    3.21026220701123
C         4.85158573014799   16.25365409134282    4.74155513191183
H         5.12852953952359   17.28083626865366    4.55253727619212
C         3.93435988889597   15.95460585698256    5.73773836474323
H         3.49685708027496   16.75072575356066    6.32199452205883
C         3.57576768159175   14.63932561709226    5.98154040866148
H         2.85776025097350   14.40565343179967    6.75338608303395
C         4.13437371107850   13.62258455725697    5.22831964976193
H         3.85133824420540   12.59028610705066    5.40601411717717
C         6.03591045849383   13.31635650616283    1.66995534967581
C         4.88014567708015   13.67017417656524    0.97501113694971
H         3.91419657005866   13.49796523436674    1.43464808529791
C         4.96797718230430   14.23488209344668   -0.28180914659477
H         4.06922089365354   14.51355520825796   -0.81257920505752
C         6.21114222183753   14.43743505489336   -0.86271029807248
H         6.28245511418466   14.87560368874983   -1.84738878114249
C         7.36043580258725   14.07455658613716   -0.18133417918300
H         8.32890568857616   14.23121703918428   -0.63410559336106
C         7.27839918956598   13.51343449790282    1.08155262419360
H         8.17991197171734   13.23649440040395    1.61002726653703
C         7.45968543158245   12.41140264620905    3.96964619283049
C         7.92898552565186   13.18166997027224    5.02522725667860
H         7.30340210370235   13.94881572591090    5.45921470028193
C         9.19638717195440   12.95257699348599    5.53151889092971
H         9.55729249334040   13.55007822804828    6.35620557905410
C         9.99496973590697   11.95611657640789    4.99717304380621
H        10.97925696256721   11.77604845986688    5.40420684049994
C         9.52608591051631   11.17778418973971    3.95062817626899
H        10.13657103912958   10.38501443697257    3.54282555643416
C         8.26222408235029   11.40112964941936    3.44456203513176
H         7.87833843225596   10.78278627482833    2.64090458157028
N         7.12679628122277    7.33843233416827    7.05768858591245
N         5.07018762665183    7.54929469330274    6.01103128248506
O         5.34460324816480    5.42269938233079    6.77802073510990
P         5.90131097452995    8.33844118140630    2.21923168905189
P         5.77733576462998   12.53263614853443    3.29704226117129
Br        2.58900942439464    9.45313951205343    4.60878394479331
Ag        4.90454256083302   10.21021453265193    3.82292315266119
S         6.69983868061748    9.62485926067776    5.87718164951160
H         8.02935485766222    7.71270407027080    7.29234173587970
H         6.85133038420421    6.38605713098570    7.28655666643500
H         4.39939245971047    8.18585222729615    5.56052431373305

