77
CSD_code = EDUJEU | q = 0 | S = 0 | Stoichiometry = C24H49ClP2Pd | MND = 4
Pd        4.06094036072479    8.20423688623175    3.71019358850146
Cl        3.47358607859608   10.00996579684631    5.13133354198791
P         1.98305171657823    7.89018143109087    2.89372642357929
P         6.23312889273712    8.16024776090125    4.30888988614315
C         4.62921250816656    6.85460341662102    2.26022058452603
H         4.86267544653516    7.53002470040015    1.41196229587858
C         3.52951960660114    5.89153241945800    1.80848994585347
H         3.36944441697226    5.15205075571628    2.60024407559498
C         3.98331399004945    5.13174506777884    0.55426614793008
H         3.19793068605809    4.44315641951129    0.23078697656620
H         4.15797559369365    5.84391139711511   -0.25694854506925
C         5.26790258509564    4.35674274058679    0.83103875082130
H         5.60022165931461    3.85088054285220   -0.07854387692699
H         5.07295338702522    3.59090979418095    1.58597195858694
C         6.36161694961701    5.29417609222393    1.33348458818415
H         6.61238639969278    6.01260218308325    0.54820561408425
H         7.26415081037313    4.72096473894796    1.56250781074073
C         5.88981034419561    6.04980582547552    2.58335464737130
H         5.63854721440752    5.30150093714738    3.34207920242565
C         2.22737411813337    6.64894121977678    1.54141445953845
H         1.37510020940906    5.97423207091210    1.43307592141748
H         2.34057408421765    7.20067601303976    0.60495932039419
C         6.99256781473775    6.96850969653832    3.11272314270578
H         7.38400788914146    7.54881825159230    2.27341622436731
H         7.82161300081259    6.40705617468942    3.54978530668778
C         0.79153717037127    7.07059192830662    4.10502203423486
C         1.53295003574114    5.80144223834852    4.54125095649897
H         2.57319677236767    6.05844920158883    4.79266118965680
H         1.52586177850675    5.04427741347226    3.76011919162929
H         1.06502562735026    5.37505101041672    5.42772343297991
C        -0.57593425042101    6.72409989788488    3.52611499764850
H        -1.15696576107816    7.62291883440826    3.33363846391464
H        -1.12905841429062    6.11720627691601    4.24263060894330
H        -0.49179898083819    6.15700413033244    2.60068503967041
C         0.64195410191984    7.96038029617467    5.33963347948776
H         1.61966563529736    8.31636806730637    5.66887839583082
H         0.19140768196164    7.39340787881538    6.15384680311047
H         0.01425962892396    8.82425921262845    5.14669016076333
C         1.24726101582640    9.37191851188361    1.99177938190836
C         0.22593124847508    9.02461227221482    0.90963587746622
H         0.66025249604073    8.42617311246037    0.11257295271226
H        -0.14773851809382    9.94707896391549    0.46577042297418
H        -0.62154714064588    8.48378496136748    1.32163972783701
C         0.63327430256092   10.34912546610397    2.99287005805401
H         1.30329861438298   10.49562655828143    3.83947249065243
H        -0.32942716403662    9.99329113496156    3.35250075106836
H         0.47412267283348   11.31531227747352    2.51469612968984
C         2.48663232165952   10.03121611677829    1.37192618083155
H         2.97720570290008    9.36998417845741    0.65564719517684
H         3.20041903444332   10.28204110500847    2.16769768266813
H         2.21457406043125   10.95018657564798    0.85451716099363
C         6.55667637493247    7.42135241816065    6.01400600521670
C         5.89490877885624    6.04001331795792    5.95216391182354
H         6.48017198539941    5.34061097072287    5.35910777270863
H         4.89015923452840    6.13904673532406    5.51601795914613
H         5.79035866572843    5.62594770198813    6.95430760601967
C         8.02924650123201    7.29481384090026    6.38867548762040
H         8.59933882875439    6.78334459410743    5.61490140554645
H         8.12064339022194    6.71880249863688    7.30931548121882
H         8.47361260274669    8.27187385782295    6.56256897441682
C         5.80121250228205    8.24231908355658    7.05966627851631
H         4.77920098498315    8.42862970993601    6.72386020061803
H         6.27487089170889    9.20024302854879    7.24799239915811
H         5.75896027739522    7.69670316240793    8.00196485691510
C         7.17919072471324    9.75816205185458    3.98830754410542
C         8.67480728639307    9.57942875924457    3.73111028180065
H         8.86957952523444    8.97606446796529    2.84785318336574
H         9.17209612848350    9.11697612887137    4.57920586238362
H         9.12598578706620   10.55827722169112    3.56999538864419
C         6.96207361799439   10.74310079985691    5.13583395215247
H         5.90779818094297   10.78089814380119    5.40793503824559
H         7.26870686862542   11.74210986760139    4.82681350700744
H         7.55035111368354   10.46966217068084    6.00876492258693
C         6.48060299349934   10.31162666253607    2.73900139921147
H         5.41284889471152   10.45105664505590    2.95250720007855
H         6.58382476270318    9.63529152587867    1.88864866215211
H         6.90170766171424   11.27626468100979    2.45911596104902

