60
CSD_code = EDULOF | q = 0 | S = 0 | Stoichiometry = C28H28Br2IrP | MND = 8
Ir        1.21431102127034    8.44081867361116   10.29261699484053
Br        1.06019263358911   10.51915850359896   11.69036312240801
Br        3.57291447566182    7.82938152318181   10.88610835428766
P         2.19616991089748    9.80920688962466    8.75389953696192
C         0.57155679902167    6.48996393927135    9.48396999046013
C        -0.31254612369993    7.46350302742515    8.93401387500590
C        -0.95314627164284    8.12462844200142   10.02142395355886
C        -0.56798238772909    7.45439296690441   11.24650119088073
C         0.36340549767453    6.45109259088720   10.91656204045348
C         1.37104140478558    5.48650344716770    8.72186850326638
H         0.79701409801115    4.56479329904556    8.60761927427470
H         2.29245948232491    5.24660742071434    9.24955228237334
H         1.62731526626575    5.85647315661737    7.73055248483388
C        -0.60001433374584    7.66936314769493    7.48407234509938
H         0.27186088870233    7.45258022681495    6.86891430094697
H        -0.91940732116931    8.68996106686983    7.28048058751084
H        -1.40396952122746    6.99643261060997    7.17875080401077
C        -2.03665892398829    9.14627880575673    9.92700124851292
H        -1.97526188453910    9.70118792792811    8.99246605015415
H        -1.97300776931093    9.85287044662168   10.75281187864212
H        -3.01183179179946    8.65760065050436    9.97474443341641
C        -1.18962945534130    7.72155581120367   12.57690710240286
H        -0.63522308524549    7.23599462699076   13.37649479265427
H        -2.21400585069887    7.34378894765640   12.58394296558888
H        -1.22217241429053    8.79001762311172   12.78708135111161
C         0.94919210824588    5.41646118825928   11.81845828292514
H         0.79647705615825    5.67167150936752   12.86434749684350
H         2.01986812018396    5.30766770855070   11.64880311410880
H         0.47563687922380    4.45250156595417   11.62217469575214
C         3.53967961922541   10.97020185698342    9.16283237458233
C         3.23667573180582   12.26115804382828    9.58364347371448
H         2.20959506707123   12.58314134165117    9.65771991056821
C         4.25743070459834   13.12688146724530    9.92945224449807
H         4.01827099145351   14.12506860639748   10.26403553637561
C         5.57706478787267   12.71213929378471    9.85964641145520
H         6.37092914203084   13.38861973329297   10.13941303526888
C         5.87792542962695   11.42679263583884    9.44070446841394
H         6.90482142364124   11.09696031588208    9.39375749623652
C         4.86476080435571   10.55292336544904    9.09226209534416
H         5.10356577412339    9.54672870357770    8.78445279018730
C         1.04043462750740   10.80847935046849    7.78224625837962
C         0.09705730030551   11.70883325701787    8.24606158691894
H        -0.01234936692908   11.89143377039241    9.30539837780831
C        -0.72053894920556   12.35786404298154    7.33346347673283
H        -1.45921840400099   13.06325586814143    7.68342434540980
C        -0.59929799699905   12.09957619731818    5.97646427913895
H        -1.24162982596926   12.61098216222278    5.27473780959245
C         0.32657963382534   11.18083050830914    5.51044272154609
H         0.39927928321227   10.97599478840378    4.45271820852343
C         1.15149277013793   10.52161504485604    6.41083738978711
C         2.13435140871815    9.48813716979203    6.11158309271146
C         2.44213214183401    8.95906715397453    4.86609314156598
H         1.96037055954664    9.33897176861973    3.97745184565105
C         3.36693585263356    7.93261243244090    4.76777616536589
H         3.60505720826067    7.52095510576606    3.79803010116285
C         3.97806990824645    7.41843115773411    5.90130091382721
H         4.68344405499900    6.60604476561123    5.81149633302024
C         3.68303310026953    7.93693357786900    7.15296070415989
H         4.14135169163911    7.52164210678746    8.03880448335621
C         2.77816701856836    8.97956666342721    7.25298587541192

