51
CSD_code = EDUPOL | q = 0 | S = 0 | Stoichiometry = C16H24B2N8Ni | MND = 4
B         1.97988925036806    6.11495075967013    6.70091624645451
H         3.02931732681999    6.50986684806237    7.12334168473717
H         1.42811416611003    5.34865248726709    7.42614103429788
C         1.19080155655364    8.13499218653484    5.35477544892318
C        -0.09581508343544    7.64571353587426    7.07545623856812
H        -0.40560426932590    7.11978070089614    7.95515102719059
C        -0.68187722875769    8.68193504685027    6.42350575769066
H        -1.58813236757537    9.21874684292355    6.61827322909654
C        -0.15514842629065    9.98275774875183    4.37451972021098
H         0.56486728080410    9.89177209463188    3.56016746307460
H        -0.07727066469938   10.98173159207400    4.81173193860447
H        -1.16323627535481    9.85351986625072    3.97604687062609
C         2.40761574082883    6.15086299370648    4.18455497715243
C         2.19004120045250    3.99935496423280    3.66280757070415
H         2.14292375802899    3.13515541700264    3.03166432935783
C         2.05705800956623    4.13662808722270    5.00655951265934
H         1.87788177284886    3.39872714920501    5.76143244368817
C         2.54963636186421    5.56667692513921    1.77063909286431
H         3.47813091225732    5.14669400396925    1.37492334563991
H         2.56700870875881    6.65068312113516    1.65053807608221
H         1.71159492639957    5.15833117330602    1.20240614884633
N         1.04169665595571    7.32007751008084    6.40831860811401
N         0.12520329530414    8.97140931079852    5.35579824715234
N         2.18629222676448    5.45470115720397    5.30824710029576
N         2.40253951294909    5.25767011313464    3.16604928817202
Ni        2.75598559571245    8.01775085296580    4.28151231847431
B         3.53208730670758    9.92054482344338    1.86210547767789
H         2.48266105861025    9.52562591986150    1.43967830703509
H         4.08386395189393   10.68684049829392    1.13687916516104
C         4.32117085659828    7.90050677000387    3.20825232610209
C         5.60779726677585    8.38978652574343    1.48757837566971
H         5.91758996739561    8.91571794742091    0.60788364285418
C         6.19385895804341    7.35356895817657    2.13953554188233
H         7.10011810278989    6.81676150206063    1.94477553032346
C         5.66711960440162    6.05274727127792    4.18852016108985
H         4.94710584166755    6.14373860102505    5.00287242511389
H         5.58923646940583    5.05377349394907    3.75131053956558
H         6.67520724603415    6.18198147510453    4.58699379036304
C         3.10435821362082    9.88463876358358    4.37846691023390
C         3.32193160336139   12.03614774939259    4.90020963403705
H         3.36904822793652   12.90034876197665    5.53135082306114
C         3.45491451540919   11.89887142108751    3.55645801562401
H         3.63409113901097   12.63677021200787    2.80158334336516
C         2.96234441265746   10.46882973771122    6.79238220369457
H         2.03386611370140   10.88883792474313    7.18810914826410
H         2.94494253269931    9.38482385150767    6.91248188801056
H         3.80040399034901   10.87715193613274    7.36060540535131
N         4.47027985438388    8.71541926351121    2.15470795709161
N         5.38677175746402    7.06409299647713    3.20723773849722
N         3.32568167186657   10.58079751290027    3.25477303683964
N         3.10943539430769   10.77783359371730    5.39697089441352

