106
CSD_code = EDUQOJ | q = 0 | S = 0 | Stoichiometry = C55H47BrP2Pd | MND = 4
Pd       -5.20841399141023   -2.31159510545108   31.40596129770081
Br       -3.17564875804981   -3.31446198068153   30.49432256216869
P        -3.84587251472556   -1.28043869855065   32.95945583753256
P        -6.97612434072441   -2.24462996489662   32.84923829131287
C        -6.29803185337673   -2.91503638890619   29.73505290417954
C        -6.20099998463260   -1.57509106101742   29.14922062105995
C        -7.18597605765780   -0.60810422195858   29.42077759341918
C        -7.09190415589831    0.66957701300485   28.90433765068906
C        -6.02365020416693    1.01943311586937   28.09242296261290
C        -5.05266442959090    0.07426467894384   27.79498659419623
C        -5.13149954533658   -1.20265134859895   28.31476852791952
C        -2.65068306669816   -0.30505375546497   32.00517679034530
C        -3.18998995979918    0.30852422786925   30.87349848366396
C        -2.38476091718664    1.03489383366210   30.02321268588598
C        -1.01948919875018    1.14635135227862   30.27070901691645
C        -0.48732328894612    0.51268166341999   31.38670499472035
C        -1.28879396305340   -0.21127913974632   32.25139081263169
C        -0.13438884716910    1.89695903659351   29.32471449185788
C        -2.90789954280271   -2.27158981637581   34.14949848599530
C        -3.02682531776245   -3.65551978637794   34.08343568061155
C        -2.36565902404847   -4.45016104673432   34.99771796916990
C        -1.57430149017911   -3.88165952556975   35.98911985996311
C        -1.46551463483128   -2.49669308604225   36.04993044907511
C        -2.13014229562420   -1.69210425685568   35.14617169856873
C        -0.87675282181839   -4.74532490791257   36.99355283738405
C        -4.65029261590549   -0.03806615813348   34.02726092082924
C        -4.52030664351327    1.34154444361509   33.77054673521597
C        -5.23229995623925    2.25508735583161   34.48997122230518
C        -6.11623395794180    1.84352356552245   35.50892754738938
C        -6.85730042047417    2.77243088252037   36.26621286696322
C        -7.69739759230302    2.35506803319120   37.25957119029128
C        -7.83596050942569    0.98645657184001   37.53327198835076
C        -7.13788500422230    0.06029176891061   36.81101706035878
C        -6.25507532357722    0.45834978283457   35.78355694484630
C        -5.52161791226556   -0.47811813356980   35.00862567156047
C        -5.64081171194794   -1.92324589803966   35.30884393478829
C        -5.04588315029101   -2.40186058548759   36.51008533226450
C        -4.32532179334673   -1.55422583034571   37.37989579307773
C        -3.75338277685241   -2.04111515141625   38.52120038106182
C        -3.86280990984324   -3.39962389386172   38.85106472211989
C        -4.54464854263616   -4.24870263982143   38.02645998729369
C        -5.14882970418122   -3.77579032182863   36.84447461392396
C        -5.86580512973044   -4.63122639264919   35.98517709514559
C        -6.43738719329339   -4.15450688799436   34.84302072193356
C        -6.33112471801713   -2.79494458638419   34.48036490061685
C        -7.87791886696990   -0.73528530160791   33.29869319514437
C        -7.59707966179542    0.44334505208009   32.62001699651817
C        -8.25741923241875    1.61093395211637   32.95018683060940
C        -9.21395578785567    1.62282467169017   33.95701803356550
C        -9.48613998127429    0.43859872418996   34.63606494406412
C        -8.82155432260629   -0.72893766850314   34.32218065830976
C        -9.94929705375284    2.87689326321014   34.31345915296192
C        -8.25011365579878   -3.48386362594074   32.46225461306641
C        -9.62081179034743   -3.27432064596411   32.50306362221183
C       -10.48669194301757   -4.28776814067410   32.12623613900113
C       -10.01074216823579   -5.51922681302478   31.69881373649029
C        -8.63250650213523   -5.71456919364706   31.63043662809178
C        -7.76414870795990   -4.70826018394104   31.99245307701135
C       -10.94443642610700   -6.61392872319522   31.28602407440831
H        -5.77253107696041   -3.68117268547606   29.15783614198512
H        -7.33354012202810   -3.21443083691325   29.92556304625346
H        -8.04401602177626   -0.88919525757446   30.02453008197890
H        -7.86122172318854    1.39598345945579   29.12980976149712
H        -5.95555121615487    2.01835972786296   27.68592701171491
H        -4.22791549836379    0.33348553728697   27.14602800209825
H        -4.37239058597321   -1.93324833940460   28.06738926086351
H        -4.25702080451835    0.19505082869014   30.66003547921205
H        -2.81336616384838    1.50518010222497   29.15010436120080
H         0.57484962365519    0.57601467340775   31.57661411899723
H        -0.85166401538813   -0.71904764788725   33.09891882729706
H         0.71847081235564    2.32598346027304   29.84584200198618
H         0.24464540972281    1.21709145669757   28.56121664150649
H        -0.68339104323067    2.69181900347302   28.82499314199712
H        -3.64513564256806   -4.10407907505631   33.30923301935863
H        -2.46145291162970   -5.52488291928752   34.94315638789183
H        -0.85679510223977   -2.04483985628503   36.82070872312251
H        -2.05840473651765   -0.61440090636685   35.21527345352006
H         0.00026087826117   -4.24437444441703   37.39639355531460
H        -1.55280798815586   -4.96361541707939   37.82102303421230
H        -0.57271876510018   -5.68932953097766   36.54746956314670
H        -3.83976487515798    1.66844805855168   32.99655034225992
H        -5.12398692756752    3.31195462391240   34.29104473100087
H        -6.74467945367434    3.82436150634092   36.04527051014723
H        -8.25749016327863    3.07346390780320   37.84064276705658
H        -8.50328049996706    0.66781071740382   38.32078449651707
H        -7.25265437508769   -0.99199501966133   37.02485440711607
H        -4.22779470575952   -0.50765630843098   37.13398773963755
H        -3.20769078143952   -1.37865226391742   39.17681464884303
H        -3.40454916003698   -3.76551889357223   39.75843608867525
H        -4.63360739084335   -5.29916554195207   38.26508364050681
H        -5.95824133113376   -5.67592661335386   36.24544648559618
H        -6.99253135041037   -4.82810738566798   34.20717733686931
H        -6.84504171324353    0.43884164437384   31.83797978075569
H        -8.02474757860407    2.52432394691460   32.42168294030300
H       -10.22089786256245    0.44024498018932   35.42879171612611
H        -9.01832233838143   -1.63641906878484   34.87753475113427
H        -9.49707001661553    3.74261287251342   33.83692903153942
H        -9.94553469301023    3.02499643779998   35.39164572037322
H       -10.98770052620020    2.80815244137970   33.98874632972807
H       -10.01897700843663   -2.31932428289720   32.81446707425873
H       -11.55260388619168   -4.11123944373493   32.16072735792334
H        -8.24575032974765   -6.65832533755290   31.27352112228404
H        -6.68672481850135   -4.84539059283939   31.88643731105125
H       -10.83441452270254   -6.81852252293061   30.22138510647754
H       -11.97847006860107   -6.34101312529152   31.48051868526571
H       -10.71577605866366   -7.53245819131522   31.82444383202333

