147
CSD_code = EDURIE | q = 0 | S = 0 | Stoichiometry = C66H72MoN4O4 | MND = 6
Mo       12.19019717142397   18.09960767761893   19.75305530580064
O        13.47492308226031   19.06598279422307   18.80345871704612
O        10.91752640623126   18.88928590090488   18.68690244629175
O        10.89422205364239   16.83688089602300   20.20270385426551
O        13.47748996939407   16.92821063779883   20.28444185166950
C        13.99716221300450   18.81744883673445   17.60618314990282
C        15.13698816964547   18.00641562505876   17.48326460093148
C        15.62729670878994   17.69411948093319   16.22482960827121
H        16.50108722892324   17.06522421536681   16.17394925054318
C        15.02664267733264   18.15796889371977   15.06277550378948
C        13.91160335712183   18.97937599042849   15.20358555421759
H        13.41772315045847   19.37300448171637   14.32688379937070
C        13.39644294659890   19.32554786006125   16.43964054531102
C        15.52882641857036   17.80571344247606   13.66945241365820
C        15.87133726051309   19.09622641429046   12.91265178692612
H        14.99505716390088   19.72495745831594   12.78450660860109
H        16.26910285840530   18.86101791633991   11.92746288851343
H        16.61940987512614   19.66342444996557   13.46158898913166
C        14.42885835787948   17.04159965856806   12.91742185785625
H        14.22879469073071   16.09237931797368   13.41261100859612
H        14.74581296753090   16.83229309938472   11.89778092913456
H        13.50570133197095   17.61371545548214   12.87738110407532
C        16.78084968137063   16.92506715621153   13.69830314431112
H        17.60113442905644   17.43228201075843   14.19986798156510
H        17.09351326611283   16.70449891780277   12.67947322816109
H        16.58412425001506   15.98044273365333   14.20041586145494
C        12.17538025838822   20.21199428449499   16.54688083346386
H        12.22370794042650   20.99053616278164   15.78177685325517
H        12.17985418206824   20.68589424880100   17.53325070396141
C        10.34314934073811   18.77531367123878   17.50223621253726
C        10.90005143634826   19.42096420542600   16.38206595136132
C        10.27386522914701   19.29845424982576   15.15556791174588
H        10.70255578840960   19.82563248769685   14.31565139575047
C         9.11421558279459   18.54359337723620   14.98118208876627
C         8.60293112580332   17.88330966802273   16.09261359196108
H         7.71249316664193   17.28160177553664   16.00794171926188
C         9.19400134954159   17.98207977861775   17.34157818324950
C         8.43666124520531   18.51943025595452   13.61991001291222
C         7.98770962928883   19.95182440062762   13.29701893445069
H         7.40841356313788   19.96893834628245   12.37615443179039
H         8.84306918816904   20.61067031330701   13.17324759912221
H         7.37466737809447   20.33367559934884   14.11078619623778
C         9.41565813025919   18.01828682506649   12.54791210232162
H         9.70470717008459   16.98700893004221   12.74571788175671
H        10.31580821614444   18.62552393296008   12.51206487736523
H         8.94460958324013   18.05701772597368   11.56810325250678
C         7.20265017107019   17.61454073768756   13.59325672911210
H         6.76749997001556   17.62416334591468   12.59595132774571
H         6.45106349296647   17.96995665149472   14.29259419726125
H         7.46126075835354   16.58567506080093   13.83631907320764
C         8.64064295247928   17.23344818844310   18.53115116428163
H         7.56673966156277   17.08422807936889   18.39512705012990
H         8.80924228632955   17.82959045670264   19.43697183444855
C        10.41914133051356   15.77390845009128   19.56933509697206
C         9.31551243684469   15.88955002874874   18.70478645663189
C         8.88042000679101   14.77546393113590   18.00975534665098
H         8.03527354854664   14.89534296309894   17.34702142617168
C         9.48671047303540   13.52898151251868   18.14502857760818
C        10.56111932543677   13.42968419554415   19.01985413827512
H        11.05802543680379   12.48487276534237   19.16905692618677
C        11.03351241300708   14.52135331756417   19.73064068534654
C         8.95032680024038   12.34528773379668   17.35117706638593
C         9.70605233155653   11.04654054289775   17.64447811120898
H        10.75844592554994   11.13679949662247   17.38484322413029
H         9.28231806841750   10.23796638049767   17.05192649114695
H         9.61984139617100   10.77560641311487   18.69366189224913
C         9.07834208980583   12.64061460040960   15.84916368662733
H        10.12763946579548   12.73634376589779   15.57284689429548
H         8.56214433988426   13.55886097604189   15.58070683275128
H         8.64847182002234   11.82685740024049   15.26870127789496
C         7.47358739957664   12.12724057380380   17.70904671291154
H         7.08266373219750   11.25835145818431   17.18339179961837
H         6.86917862050295   12.98843895642521   17.43925617088033
H         7.36979140401631   11.96033225343179   18.77865982482187
C        12.22908872250963   14.40189462820730   20.64903103131182
H        12.16095995870550   15.17437718312170   21.42451991722524
H        12.22835482430473   13.41659799701472   21.12049778965370
C        14.06414547775317   15.87119049910233   19.73206108679464
C        13.51408520381643   14.58775455811659   19.87433037764589
C        14.12893687971493   13.50679995311856   19.26063769224180
H        13.67632945497541   12.53720805142071   19.39241424936526
C        15.28442543981714   13.64585734240210   18.50461428580262
C        15.81252082297236   14.92667482060766   18.37148105681384
H        16.71001458290868   15.08006668499494   17.79067330730844
C        15.22818362550550   16.03249392012398   18.96062345228218
C        15.97802059216837   12.47626379391831   17.82130842576882
C        15.25654462147340   11.14567505757940   18.05177911463915
H        15.79161746205581   10.34841530364111   17.53931611434566
H        14.24297240571208   11.17707193994285   17.65840960116051
H        15.22124572286520   10.89976912151623   19.11018540348699
C        17.40530829965077   12.34679333532467   18.37052316913172
H        17.98436669520341   13.24594891623987   18.18071897021589
H        17.91475932724555   11.50683060992637   17.90239406996011
H        17.37862723386684   12.18050963856026   19.44507932662077
C        16.02625954244649   12.73644860863946   16.30856977763039
H        16.58767732870860   13.63805591368477   16.08062974222393
H        15.01792804691862   12.85430755562853   15.91596402044325
H        16.50143838603747   11.90146728336923   15.79753067779846
C        15.77487331028817   17.42129348302523   18.72399408064986
H        16.85781867520096   17.37208846931614   18.59056955805722
H        15.54438507970708   18.05896826022486   19.58660171649556
N        12.07438544854709   19.08199490307074   21.18319043079441
C        11.90590015917691   19.77390204461127   22.30901347441330
C        11.51163397696554   19.10534274246910   23.48168125133432
H        11.36626124208723   18.03488930647924   23.41986368175083
C        11.31237039874853   19.79667904872480   24.65676912321894
H        11.00712513629872   19.26732112528144   25.54814759692445
C        11.50533323576410   21.16919115764177   24.69776488714841
H        11.35223531682086   21.71353557881549   25.61769596330703
C        11.89845540729847   21.84049074081260   23.55041304537878
H        12.04965434201383   22.91102166678517   23.58594012161652
C        12.10527849378865   21.17267268339658   22.35722284204083
C        12.51279215230070   21.90119348272684   21.10912103873146
H        13.31536505564252   21.34317356037774   20.61487139292104
H        12.86959025307201   22.89735545352286   21.37947410938423
C        11.32504702578930   22.00850331056325   20.14708311896322
H        11.02219729570469   20.99371193241244   19.86361812916345
H        10.47469439857092   22.45861792282572   20.66985574022983
C        11.56838513902833   22.81414622047553   18.90154814860027
C        12.73721821132428   23.51467164785896   18.65440629447996
H        13.54688963980750   23.47975418944981   19.36554002429665
C        12.89320021199559   24.27427917660514   17.50453072388022
H        13.81258335444918   24.81748955500818   17.34241259291873
C        11.86934963978256   24.35254869052134   16.57755745128496
H        11.97751513035482   24.96635054746466   15.69503643036079
C        10.70647895838951   23.63596139635574   16.78276240200475
H         9.89392786644869   23.70124754467449   16.07320888176148
C        10.55231443450043   22.85084824804244   17.92553944957006
N         9.41115656845116   22.11658679821439   18.18374104716383
C         8.72411442603339   21.57193854207048   17.26813519616542
H         8.96750609460831   21.61622408878757   16.20127870968684
C         7.53992767616894   20.79287392688089   17.59088100419088
C         7.25628956846518   20.42191185441042   18.90783903561378
H         7.92635689692849   20.73283339936581   19.69279179525400
C         6.13277002588768   19.65627795765375   19.15223526182650
H         5.88524244451342   19.34525743321644   20.15709320401495
C         5.32746463937142   19.29124800376558   18.08212121181682
H         4.43931941657597   18.69552236593858   18.22796998036721
C         5.69387093584456   19.71345413019635   16.81236629197101
H         5.09221118771299   19.46066355518577   15.94743050826986
N         6.76747362101756   20.43739335068441   16.56407187195779
N        12.31679037215537   16.73418871910058   17.84075099026666
C        11.90914762855987   16.41660183508461   16.81714506004250
C        11.45559761354732   15.97102964914426   15.54541286488015
H        12.30988212546487   15.86578288969395   14.87724563936747
H        10.75753307738046   16.70365241593787   15.13378124449612
H        10.94892118667746   15.01350048203972   15.66501998297227

