45
CSD_code = EDUREC | q = 0 | S = 0 | Stoichiometry = C22H18N4Pd | MND = 4
Pd        5.28172158059769    5.32392052284892    0.00007846464834
N         7.16532316997966    5.94184857718623    0.43452060620619
C         8.45007466735450    5.69754135625440    0.18620094107895
H         8.77771355854026    4.82668825314595   -0.35459779398760
C         9.25846732720343    6.69929694333955    0.73911594825811
H        10.32905164251766    6.74183112574981    0.68432888939730
C         8.41652948773459    7.59563204929948    1.36862920059779
H         8.68496639540124    8.48595166504733    1.90359690458822
C         7.11223484678014    7.10536309361354    1.17779073571518
C         5.86826864392777    7.43831605373059    1.73054687298130
H         5.77572527260819    8.24564456484094    2.45579308279480
N         4.85713034131154    6.65861438082041    1.45876910220688
C         3.66090169455675    6.74183299499585    2.17018597195275
C         3.11817927021056    5.54312353587252    2.64261119974524
H         3.64191644774830    4.61553521750025    2.41651554608237
C         1.95058375252684    5.55366869673397    3.37784766894436
H         1.53618903625123    4.62610485545313    3.74348598224982
C         1.30691543312539    6.75398981038322    3.64208107935056
H         0.38882638761574    6.76125385196665    4.20983251281880
C         1.83975321723327    7.94309995321710    3.17297050405736
H         1.33530562743962    8.87683882817104    3.37378392142050
C         3.01641113499872    7.94600419473093    2.44532258199688
H         3.42419169280023    8.87230833435142    2.06648355178093
N         3.39812263406258    4.70606003669693   -0.43444815514125
C         2.11337034796425    4.95045170112560   -0.18622898573490
H         1.78574951225185    5.82130604384765    0.35457923575697
C         1.30495281769026    3.94875726962394   -0.73922253655616
H         0.23436122695625    3.90629502801441   -0.68451687277860
C         2.14687396126519    3.05238232029730   -1.36869450706002
H         1.87841405248532    2.16209868433072   -1.90370955705977
C         3.45118905668653    3.54256022907234   -1.17774420106683
C         4.69515981962809    3.20958209049218   -1.73046803543361
H         4.78770411932165    2.40227106244560   -2.45573238480720
N         5.70630784382202    3.98926029550093   -1.45864484245772
C         6.90251723630507    3.90610160066148   -2.17010817021422
C         7.44513207691302    5.10484749835614   -2.64256332759489
H         6.92133111379652    6.03239634423013   -2.41644973051940
C         8.61268482833533    5.09438403085730   -3.37786763774857
H         9.02698318670721    6.02197467609770   -3.74354523587241
C         9.25642114145698    3.89410734682525   -3.64213217666474
H        10.17448107559246    3.88690740259051   -4.20993235213105
C         8.72369436139994    2.70496315281360   -3.17298449276832
H         9.22821041074570    1.77126253072470   -3.37380572069569
C         7.54707452268879    2.70197585083414   -2.44527286436400
H         7.13938402546190    1.77564594530826   -2.06640092397267

