78
CSD_code = EDUYAG | q = 0 | S = 0 | Stoichiometry = C27H39BClCoN6Se3 | MND = 5
Co        3.37089835940807    6.90561931684502    8.20813991878856
Cl        2.26426215872050    5.40265273803910    9.12657737735324
B         2.58895088769022    7.96675347970953    6.70082056411515
Se        3.98157014276117    5.28879856955618    6.67321528702736
N         3.01018572809636    8.41282195597906    4.36966238896803
N         3.16351004547208    7.54773969954408    5.35207995565315
C         3.67557800355021    6.30798074517581    5.17884217348207
C         3.96079160008148    5.87980419212555    3.84995685730602
C         3.75870572469807    6.77372859037870    2.83679477680862
H         3.95444036136334    6.49096476820315    1.81431846077673
C         3.29878933651354    8.08018886604202    3.14618916457881
C         3.08177367258360    9.12650327505425    2.07586531905680
C         2.69756402547702   10.45924857670343    2.72090883504427
H         3.50168388401555   10.81674287113322    3.35896217434519
H         1.81053944326128   10.33615332474625    3.33542134364566
H         2.50129635876847   11.20228012197762    1.95123164149632
C         4.36665080198994    9.30732579624289    1.25948655850789
H         4.63069970695912    8.39913383795509    0.72424451414081
H         5.19494855477481    9.57675603382541    1.91105242374796
H         4.22992354488672   10.10244089626073    0.53038119116184
C         1.94117355037843    8.65505502150110    1.16410697624316
H         1.02503233424659    8.53687430895685    1.73856079839412
H         2.17831942128299    7.70330068241962    0.69505751661938
H         1.76519495681230    9.38882264780366    0.38111618620782
C         4.47113126117707    4.50087084656068    3.63246121327150
H         4.59445132692896    4.28507864213508    2.57504897962751
H         3.78478912062334    3.78131983836932    4.07855118672964
H         5.42725422081002    4.38413961806140    4.14337942648100
Se        1.28293503496874    8.59298103201671    9.35035570966510
N         0.64240115174795    6.90929831019936    5.77101977360915
N         1.14167992015904    7.58324271516852    6.79335426569016
C         0.41439453504867    7.91160694901005    7.89386919414049
C        -0.97720312368064    7.62874442654724    7.87874648351487
C        -1.48175794871905    6.94584774699923    6.80435918990232
H        -2.52917082263764    6.68918673371514    6.76899508938229
C        -0.61078361292632    6.56112497758607    5.75742454835486
C        -1.08138127157725    5.74709344901434    4.57271776124004
C         0.09759617258202    5.44864653132579    3.64406530450335
H         0.86361372963882    4.89210885678675    4.17728804688062
H         0.54162419450952    6.37257797338489    3.28370088974042
H        -0.23809267984465    4.86151586790018    2.79249341639799
C        -1.67096144197762    4.42620579666769    5.08094940879928
H        -2.54499972654116    4.59595468872037    5.70436251759487
H        -0.93090584211586    3.88580749937625    5.66666700095879
H        -1.96770746122160    3.80466509032643    4.23925348403068
C        -2.14635235787118    6.54249533253426    3.80771187885697
H        -1.73711586023678    7.49119803246911    3.46658219458680
H        -3.01157515442207    6.74727330509554    4.43316901764687
H        -2.47848218743324    5.97701871067679    2.94014563832278
C        -1.81523047273050    8.02955015300636    9.04057935270273
H        -2.86785934458723    7.83352273742781    8.85545477664049
H        -1.66789822568685    9.08656580463872    9.26010685041239
H        -1.49379691626686    7.47433460101779    9.92216961688810
Se        5.07669643223002    8.56059179201656    8.03787766580319
N         1.83946834212846   10.28035014956549    6.49018201671928
N         2.79582378498477    9.46941189753717    6.87926420835804
C         3.97551228319420    9.88228145134625    7.38187764874401
C         4.23502891551868   11.27564488296972    7.43550957829376
C         3.22766769371348   12.11528745145713    7.03858983677560
H         3.36505519672724   13.18440448596965    7.08784465208062
C         2.00219598025382   11.57038106784793    6.58482582357926
C         0.82221354029298   12.44193267338332    6.21999973825367
C        -0.34893612934031   11.56944541618303    5.76549612909871
H        -1.20025339801193   12.19432646009555    5.50660761632440
H        -0.64056061756337   10.88784570909591    6.55968444084286
H        -0.06902300459321   10.97684402254971    4.89923658319851
C         0.40698106354482   13.23298668837331    7.46752310753281
H         0.17429859430414   12.55223448072488    8.28338651743720
H        -0.47624845001915   13.82900665925314    7.25053503868314
H         1.19895217692164   13.90195492262464    7.79455469992526
C         1.21506448556579   13.40257261937146    5.09178733949814
H         2.01824750929005   14.06764174981977    5.39864861935332
H         0.35845356365768   14.01174915851870    4.81325486444869
H         1.54308231836416   12.84567870331133    4.21728014356233
C         5.54494771925946   11.75243147863616    7.95243578093227
H         5.62276201360045   12.83469836289923    7.90033613145559
H         6.35430031919444   11.29539893988626    7.38385708615311
H         5.66259084525631   11.42863219364764    8.98703011290347

