107
CSD_code = EDUYIL | q = 1 | S = 0 | Stoichiometry = C38H60B2IrN2O4(1+) | MND = 8
Ir        1.56291352639357    4.37390954693767   11.32297948433285
O        -1.23878114161189    4.97779070651488   12.27407875342160
O        -1.18266380300229    2.94325897193006   11.31734034818857
O         0.51635562205688    3.29149921007583    8.69106632334712
O         1.52840601232930    1.71224686284670    9.95338588299162
N         1.13420419034486    5.85938022520989   10.02599788274719
N         3.46204063057125    4.51176838539301    9.93386411366497
C         2.81502405541029    5.98807414746881   12.77130842948748
C         1.66641200425290    5.89324620666537   13.46200706620006
C         1.47836556505066    5.02342244540264   14.67015033721232
C         0.95460229057148    3.61106832384109   14.34924305685856
C         1.44451515652556    2.98604613153504   13.06209705744049
C         2.74926798421410    3.04565388614178   12.58555711611804
C         3.87994799911678    3.71745695503753   13.34099220944675
C         4.07605250308289    5.22074213435467   13.05698796338154
C         0.13152354696269    6.72430267750367   10.20552911384575
C        -0.09753707356271    7.82120424390355    9.40031144526819
C         0.74921989250217    8.09206357688278    8.32750625411657
C         1.80903445954208    7.20724968181371    8.16550075928374
C         1.97931674074590    6.11050369738706    9.00201758011488
C         3.12420241942573    5.21052012471855    8.84137296919756
C         3.82187118011649    5.08675651821630    7.64513097145845
C         4.92515310231392    4.24254885591044    7.54710958724842
C         5.26159253955073    3.53797119743010    8.70043822311709
C         4.50313830692791    3.69865597730691    9.84583223213308
C         0.57710199769829    9.26924121172147    7.39123959013979
C        -0.68562150646518   10.07556332115234    7.70253737377173
C         1.79704945942257   10.19122855374498    7.53484116230691
C         0.48103607040672    8.75032549415132    5.94919026885560
C         5.69504378265326    4.13665756082575    6.24579039061233
C         6.22188448551231    5.53151382974890    5.87621180340694
C         4.75769076108901    3.62547487087613    5.14255827782289
C         6.88568682095838    3.18113000394390    6.35158863369224
C        -2.62131526601409    4.57701272486044   12.22204327014583
C        -2.53703068074313    3.06687970299126   11.79167865878495
C        -3.26285020567125    4.82735160929381   13.58378502231156
C        -3.29921097938348    5.46944422598714   11.17720084740151
C        -2.69726334704631    2.08380145402693   12.95517452908754
C        -3.49329566043091    2.66713470984145   10.67035229162023
C         0.53420534878730    2.11759532530521    7.85405764579077
C         0.96164240825481    0.97838290362502    8.85000113067301
C        -0.84462643465023    1.94032304197231    7.22764163949195
C         1.56572559153605    2.37528820867346    6.75218876292486
C        -0.22749309283248    0.20382976538451    9.42177525128688
C         2.00268911573655    0.00374177216571    8.30940680890199
B        -0.45818399988421    4.03855383795740   11.66180096834036
B         1.12529993090087    3.00211458511237    9.86983144364270
H         2.92842292539373    6.79324252816776   12.05299454982962
H         0.86000007507347    6.57935955887429   13.24400992387323
H         2.42251784055015    4.96218986927235   15.21129589600969
H         0.75859657184352    5.50439504458436   15.33459489989516
H         1.21621344793120    2.93601833119854   15.17165022142998
H        -0.13361709653239    3.65408897151349   14.30509237296040
H         0.87008912243848    2.10731282195637   12.78160865941340
H         3.05243351982849    2.22093561673273   11.94693267288043
H         3.71113350194192    3.56018977331166   14.40701971557255
H         4.81641671446780    3.21019710872253   13.09987657968180
H         4.74112775609551    5.33519574571172   12.19971272635622
H         4.58123815275337    5.67871682660635   13.91415246482234
H        -0.52912024316234    6.52705287782649   11.03486872721155
H        -0.93810882165147    8.45453813761179    9.62535324753490
H         2.53450621242760    7.38080249250795    7.38858861935145
H         3.48825808397387    5.63305825665175    6.77915339810624
H         6.10128872075925    2.86528211088619    8.72511700966048
H         4.75934034993385    3.14981892200571   10.73815757014014
H        -0.64068499122413   10.51057689902104    8.69812039758127
H        -0.77696071008002   10.89012041302096    6.98855635583572
H        -1.57607546927465    9.45674241763580    7.61958359874896
H         2.71913438188076    9.67991311092874    7.27111164001264
H         1.68630048111052   11.05082848933193    6.87920344325513
H         1.88370714683257   10.54973395394953    8.55835167890353
H        -0.35115937074741    8.05655637610151    5.85072026418845
H         0.31582703486616    9.58271264585874    5.27018019741190
H         1.39128700070837    8.24236895530176    5.64246501457886
H         6.84999016558278    5.92471155183078    6.67279736061341
H         6.81803291618955    5.47037779337587    4.96965146677576
H         5.41078865256226    6.23258635700326    5.69925060357302
H         3.89908408070839    4.27759238349091    5.00865271296931
H         5.29642677205029    3.57683100166227    4.19987548482302
H         4.39627332526597    2.62789559122751    5.38129196128790
H         6.56161178896471    2.17163398454777    6.59399736768675
H         7.40186805412114    3.14336065112428    5.39569276218667
H         7.59731569137028    3.51997256736471    7.10086713076890
H        -4.29395733838240    4.48694185998279   13.57974023951922
H        -2.72319806205646    4.32414972960684   14.37921758996865
H        -3.24946060739084    5.89455400297434   13.79063907494274
H        -3.20586451113182    6.50709959767035   11.49004012085454
H        -2.81435824320303    5.35843852070693   10.21062151708905
H        -4.35379245902050    5.23056779265691   11.08723716547213
H        -3.70895014571406    2.10791515926762   13.34744396425848
H        -2.48572422062048    1.08101131277868   12.59250383307861
H        -1.99230343593693    2.30490292837653   13.75147270089818
H        -3.28174572351337    3.21768661205468    9.75929690517783
H        -3.37212848045349    1.60668628775647   10.46333921093755
H        -4.52191265955237    2.84335308891407   10.97080504446664
H        -1.61470195041524    1.92347318254640    7.99083060822974
H        -1.04184376826665    2.77762749127357    6.56301265390319
H        -0.88140545753542    1.02050130239421    6.65135141943483
H         2.54758920556996    2.54195495202772    7.18698450689473
H         1.60776010466655    1.54362531297588    6.05603048790102
H         1.27790116400351    3.27310454524094    6.21034939918525
H        -0.91131845282077    0.89994020747045    9.89899678513218
H        -0.73763181612457   -0.36475585988793    8.65110432651088
H         0.13980516210177   -0.48243856361664   10.18063910932741
H         2.22545452502843   -0.73390584685809    9.07554895353238
H         1.61676132881689   -0.50911272135649    7.43330600335527
H         2.92667974739111    0.51233956380352    8.05343875232481

