93
CSD_code = EFABIW | q = 0 | S = 0 | Stoichiometry = C43H45BOP2Pt | MND = 4
Pt       -0.82518830436500    1.19551903224333    4.63113990804135
P         0.74880252898870   -0.10246518636022    5.79424248346467
P         0.82997454770074    1.98729995088292    3.34716156976392
B         3.19241441960647    0.35210659556411    4.22737059594997
C         3.76754657307634   -1.15082223538035    4.00528956422998
C         4.67533754683291   -1.66107176558828    4.93592173660531
H         4.98595072325775   -1.03302514557280    5.76071738230937
C         5.20501962915393   -2.93321803268065    4.83646409558585
H         5.90241197358244   -3.29022697322083    5.58354619501826
C         4.84835072672046   -3.75180887937925    3.77852884781262
H         5.25440986157507   -4.75090854657215    3.69510866342545
C         3.97760855667619   -3.26501153472785    2.82179360743046
H         3.70143643045804   -3.88509659858043    1.97835659658219
C         3.45678927250074   -1.98739223553529    2.93602441401106
H         2.78755741790607   -1.64858424481184    2.15700972084083
C         4.46293911158128    1.35807386549924    4.13169742776725
C         4.94617496232081    2.13527822674417    5.18164349069057
H         4.46426128702541    2.09681063917374    6.14883261115971
C         6.03991924820363    2.97225570064555    5.03915543102315
H         6.37921353452078    3.56315326594444    5.88057596574087
C         6.70024678454617    3.05589672887168    3.82751747918088
H         7.55293924077546    3.71090697658858    3.70991052575396
C         6.26227318596258    2.27548483203516    2.77086317835344
H         6.77991367214761    2.31462760582783    1.82103436126513
C         5.17056229586894    1.44333824557664    2.93069904726330
H         4.86218927933928    0.82637455001149    2.09659440680889
C         2.47636353208831    0.43860384681858    5.72732216442484
H         2.44650526979815    1.48019077855987    6.06682692801914
H         3.03723782449341   -0.13565030156862    6.47012897163925
C         2.09806115453041    0.74231859983413    3.02301245227195
H         1.51402459836072   -0.14501495161452    2.75356567572746
H         2.62246625022889    1.06816957623942    2.11966800572134
C         0.38641941232717   -0.40923545798038    7.55211085832598
C         0.73945928344356    0.55434308779673    8.49370645191433
H         1.29419103251409    1.42770756530378    8.17721864691437
C         0.38798051725820    0.40053169324289    9.82182077397986
H         0.67134198538356    1.15089223490487   10.54605208541367
C        -0.32879314017783   -0.71478913082966   10.22538839572413
H        -0.60332183554498   -0.83624099918907   11.26310462788608
C        -0.69374267936613   -1.67291850274593    9.29308585646220
H        -1.25382614749599   -2.54331815990813    9.60606510429953
C        -0.34523122354027   -1.51942538773699    7.96371154635622
H        -0.63475221532096   -2.26648247466923    7.23716596380542
C         0.73545340881811   -1.77668041818905    5.09070420145728
C         1.54806330854563   -2.79788130121577    5.56777317333686
H         2.19832646481426   -2.61633239811392    6.41091315444126
C         1.52673429587182   -4.03674509478395    4.95618996210055
H         2.16597701870947   -4.82719253718832    5.31993800501306
C         0.69728404837619   -4.26270405822554    3.86890306590751
H         0.69005028315443   -5.23058756168527    3.38936634554196
C        -0.11996347230610   -3.25075524930029    3.39304748257320
H        -0.76605661250739   -3.42993504518200    2.54499135474118
C        -0.10032162886311   -2.01082986645551    4.00514036321051
H        -0.73316855256202   -1.19762678999639    3.64266092868144
C         1.57958970331505    3.37991067712970    4.22745171622550
C         0.99384631173250    3.80810400678749    5.41328359506610
H         0.07842218468518    3.31776857092199    5.74873503800248
C         1.57166025137578    4.83066853594163    6.14227468368573
H         1.12160794667624    5.16220261387363    7.06720688166506
C         2.73584077908070    5.42876439873014    5.68433714933311
H         3.19179557300849    6.22389757042821    6.25578784543246
C         3.31793681787733    5.00838490372755    4.49937014229555
H         4.22814227053019    5.47104602257378    4.14931878134824
C         2.74500496786042    3.98251227531730    3.76946036419518
H         3.20312345343453    3.64031129174217    2.85367402540968
C         0.34124980806287    2.64519102832651    1.72387794674718
C        -0.10972724215728    1.73051633134706    0.77618485201190
H        -0.14831633747301    0.68103419425030    1.03571122922212
C        -0.50974128520437    2.15997348561073   -0.47416906399740
H        -0.85816353602328    1.44661996155310   -1.20678612357850
C        -0.46575038327475    3.50972506566788   -0.78773706551821
H        -0.77781426960909    3.84771489883199   -1.76484205567397
C        -0.02687937885104    4.42472123419336    0.15422195488574
H         0.00127265614561    5.47712049743871   -0.08802444590882
C         0.37287832310776    3.99772835500134    1.40893759996416
H         0.70761447438301    4.71362432987367    2.14597390068982
C        -2.28771127839127    2.23592311294849    3.61713602777103
H        -3.14140611720255    2.39396792080186    4.28849356000939
H        -2.64619359881294    1.65210111830254    2.76060850945948
H        -1.99848799463455    3.21545561568051    3.22898743013153
O        -2.35309675508570    0.34080824107515    6.12996584177460
C        -2.76626186856784    1.17315108948980    7.19672635457977
H        -3.36311181334146    2.01392343047650    6.81426665308177
H        -1.87023649259469    1.55915981972679    7.68780143789931
C        -3.61982463907946    0.27710159351473    8.10903764805609
H        -3.03856642212842   -0.06061017448143    8.96507737834286
H        -4.49341897501859    0.81326871891470    8.47403829500276
C        -4.00301505063061   -0.90728580675411    7.20417397345338
H        -5.07711328929348   -1.07300724815748    7.16565404283921
H        -3.52219742104832   -1.82101528442570    7.54977628832864
C        -3.44612189540212   -0.50369756049268    5.83332218505994
H        -3.07411381045318   -1.34543642270211    5.24712146371220
H        -4.20353235391396    0.04014505338834    5.25018210712835

