43
CSD_code = EFAFIB | q = 0 | S = 0 | Stoichiometry = C18H16MoN2O6 | MND = 6
Mo       -1.11798945439819    1.81061888081862    3.33128936477186
C         1.01824141888760    4.31537122123260    3.88655557773019
H         0.70362546254447    5.11362150503055    3.20575134781957
H         1.67394594269349    3.62881639349784    3.34294094814364
C         1.66459570468246    4.85232237405543    5.18097681929565
H         2.66883295096025    4.45641397804798    5.35203238336871
H         1.69279709928712    5.94479413133360    5.22936544870593
C        -0.16840925318061    3.65707852193043    5.64953627746554
C        -1.15606049945949    3.05621241096687    6.50948901133849
C        -1.03799895365031    3.16724721533276    7.90125106944859
H        -0.19542234532298    3.70826451402190    8.30395869979693
C        -1.96970459700716    2.59376564053670    8.73447590378535
H        -1.86744235725037    2.67988232785462    9.80506451276847
C        -3.04311614598852    1.89276762043031    8.18879256035695
H        -3.76990588802769    1.43361574031556    8.84283827800659
C        -3.18546524886525    1.77604997743775    6.82529307663363
H        -4.00644552538575    1.22510956500088    6.38874007121305
C        -2.24560958828882    2.34472672697629    5.94625085865814
N        -0.14755864125008    3.59024490770115    4.36334355046307
O         0.81088552240561    4.38006708751078    6.21736519503388
O        -2.41038820652707    2.23823295010182    4.65419911044664
O        -0.14256249757148    0.89254457097840    4.29439646006535
C        -3.25417286088940    4.31498579034382    2.77486687515806
H        -2.93998174964985    5.11333610208890    3.45574309205216
H        -3.90992846070253    3.62831873321503    3.31826933571307
C        -3.90014937403238    4.85174528169475    1.48018083142680
H        -4.90418344316444    4.45550516336858    1.30870381248593
H        -3.92868792544049    5.94420237143119    1.43177252577429
C        -2.06667457998329    3.65693819490164    1.01237234178009
C        -1.07859131036043    3.05625273209088    0.15277998277304
C        -1.19583372241448    3.16777902914114   -1.23902379887432
H        -2.03808660061564    3.70909524497501   -1.64202103127410
C        -0.26373656844423    2.59445192393495   -2.07191640973412
H        -0.36528639081379    2.68104369670438   -3.14255575334339
C         0.80918342998528    1.89298194837704   -1.52587132403726
H         1.53628120020392    1.43396057401348   -2.17967303290206
C         0.95071500794701    1.77574132182299   -0.16233170845227
H         1.77130133163173    1.22447334660226    0.27452961099365
C         0.01052612597609    2.34440578638565    0.71637331087013
N        -2.08803439034992    3.59009880968610    2.29855463387479
O        -3.04585920037834    4.37976047742199    0.44414103681208
O         0.17462641541058    2.23749819665716    2.00846565462594
O        -2.09377183319919    0.89265701402291    2.36843348895665

