104
CSD_code = EFAFOH | q = 0 | S = 0 | Stoichiometry = C49H45N3O4OsP2 | MND = 8
Os        4.55717454368042    1.66714575713079   10.36932729605119
P         3.74725659273095    3.77932330626930   10.79739299176869
P         6.85128569288590    1.93765989809350   10.36184244853119
O         2.26861844873094    4.17877284733506    5.62331621899630
O         3.77718308756150    3.08214293564695    4.36015672494345
O         6.24707099291700    4.52166133113732    4.96929080297525
O         7.70248829087800    3.17171916832139    6.01753223154849
N         5.81629325810169    2.67600352024614    7.98177973734349
N         4.68741699722540    2.33315251906506    8.53177937767197
N         3.64497827762747    2.55247606066060    7.78033185594658
C         4.11083742935521    3.07400438272489    6.63953908473674
C         5.50920971155443    3.15157334718034    6.76047680384432
C         3.26790548835858    3.51241207573412    5.51586572723254
C         3.20918317301237    3.58530020748689    3.15107905767435
H         2.53254008576634    4.40890027981264    3.40289758806525
H         2.63104470126102    2.77751324803316    2.68850950591424
C         4.33531039373874    4.05139440267484    2.24292255921115
H         4.97696543336861    4.73599754519207    2.79183421850092
H         3.92555246887610    4.55224588457792    1.37025064962646
H         4.93436596040141    3.20350378276899    1.92125572137564
C         6.48296941000117    3.69477907795115    5.81930716808445
C         8.74097456530924    3.64993508847127    5.16747738245279
H         8.76434306121853    4.74528447117181    5.21448350256303
H         8.51328997470505    3.36358346622007    4.13385618522386
C        10.05245287818204    3.04274799669130    5.62982759341859
H        10.27185667236254    3.35050515184026    6.64881203560961
H        10.85706445050234    3.36674082866008    4.97568171176943
H         9.98461387096612    1.95848087362731    5.60754977266909
C         3.78815474209098   -0.47556530193595    9.86862973340670
H         3.82598963726953   -0.97856954710186    8.91322610535599
C         2.69982921500660    0.27994185622661   10.35625590593787
H         1.75418139720431    0.42130838120871    9.85791537973732
C         2.97950651398334    0.61715251405063   11.70961505621676
H         2.27669888321588    1.07741632380555   12.39192777938795
C         4.24165568795020    0.08658051106375   12.05096274361222
H         4.67192986160932    0.04114380617622   13.04101880097621
C         4.75104704280200   -0.57866654802577   10.89979249124957
H         5.64174430412266   -1.19262181769796   10.87851534622672
C         4.35673156100132    4.65463051850961   12.28199753957101
C         4.29351349369530    3.95314807737443   13.48603729359673
H         3.85539373060934    2.96248747206730   13.49217057716897
C         4.77199130740107    4.51489033199880   14.65403667668742
H         4.71163828705981    3.96715029251043   15.58359748421981
C         5.33474050115598    5.78188051001039   14.62908284803237
H         5.71804218307860    6.22026652700424   15.53869501385064
C         5.40108721762251    6.48334652117614   13.43750733956704
H         5.83444327449499    7.47264929460860   13.41769244563483
C         4.91271953309231    5.92733478884361   12.26680096362157
H         4.96203204470370    6.48384379520268   11.34288067125257
C         1.94251791502357    3.73342673580467   11.06780545558375
C         1.30338234178326    4.18103521643250   12.21641789139674
H         1.87275353044445    4.62001354050967   13.02323298285734
C        -0.07317791900815    4.06849244511278   12.32779708442142
H        -0.56597054460035    4.41442980254033   13.22512781657913
C        -0.81622970406888    3.51887366894971   11.29758650775586
H        -1.88879720903946    3.43230880371831   11.39215684422602
C        -0.18255418263358    3.08415602407206   10.14289742057966
H        -0.76154662084818    2.66600666942268    9.33245319055131
C         1.19023926214124    3.18605630132550   10.02741010366836
H         1.70015296639911    2.85747823262244    9.12973721961203
C         3.88062247291103    5.03946238806956    9.47904449574748
C         2.80026845766861    5.61397983853548    8.81949396590192
H         1.78862166845516    5.38441884250179    9.11575336164833
C         3.01823396323378    6.47658794466008    7.75919997015523
H         2.17291504486438    6.89821388629194    7.23761714264674
C         4.30594885146126    6.77935648860453    7.35156367512632
H         4.46847845674318    7.43487826386760    6.50945437365259
C         5.38701043465070    6.22962454731016    8.02103249626491
H         6.39660139145606    6.45978073668172    7.71333658670720
C         5.17427386046024    5.36237077322625    9.07452650458023
H         6.00577305978805    4.90642191996732    9.59013497995376
C         7.48916777423339    1.21876292973691   11.93285544347861
C         6.91720568451083    1.68601240628959   13.11445504219698
H         6.13448645755305    2.43085901342323   13.05651809424747
C         7.31355367125796    1.19087716562690   14.34160249951256
H         6.86524504389543    1.57353606862348   15.24756994801109
C         8.27337538003167    0.19368512726958   14.40708984595393
H         8.58108284054335   -0.20339847578020   15.36324221130576
C         8.82165856788501   -0.30337343697431   13.23798572097923
H         9.55501997427681   -1.09586579450464   13.28034587042331
C         8.43506182719990    0.20363932956092   12.00822190548279
H         8.86980250516952   -0.20638278157419   11.10865154305865
C         7.82508538553721    0.98110159452753    9.14390368135784
C         9.21031073919878    1.11381484390473    9.07907200021255
H         9.71609904020857    1.80039744730425    9.74465853871662
C         9.93993491337639    0.37247062860998    8.16841840369141
H        11.01395803235845    0.48451510038836    8.12283918973373
C         9.29795971183665   -0.51049514384436    7.31498177026328
H         9.86994398598965   -1.08493505852875    6.60056115413193
C         7.92286344114936   -0.65492142851064    7.38152327190957
H         7.41931093338847   -1.34331130776961    6.71818733744078
C         7.19241882431445    0.08499508144985    8.29386881463080
H         6.11798938195271   -0.01996758203077    8.34109188053221
C         7.77096819067831    3.52545552810863   10.34847673587408
C         7.90826807152887    4.29939688676802   11.49652796117308
H         7.51640431048184    3.95359481149823   12.43993617327325
C         8.55234532747108    5.52347983578003   11.44199912862741
H         8.64985246872527    6.11359401203361   12.34162464231075
C         9.06711305485087    5.99038879658252   10.24512233838436
H         9.56870969237126    6.94622505693255   10.20585205238400
C         8.93213485198246    5.22512786372725    9.09757846279277
H         9.32888476099061    5.58623476920083    8.15928047531892
C         8.28542725309875    4.00428379211554    9.14390641978489
H         8.14902407437751    3.42132208816994    8.24713722394169

