85
CSD_code = EFAGOI | q = 0 | S = 0 | Stoichiometry = C39H41ClP3Rh | MND = 6
C         3.90685588907140    2.70205941108487    5.20150138574377
H         4.52702925273370    3.59740132404687    5.17278335141823
H         4.48175344339401    1.84010531030942    4.85895152429821
H         3.56549859235515    2.49145532724295    6.21473794459656
C         1.72533827037834    4.46118567822546    4.52484347679954
C         0.80493728698135    4.97972454974743    3.61790394866696
H         0.57839138423924    4.41207713535193    2.72462095339044
C         0.20043454593754    6.19857724417269    3.85027735158203
H        -0.50621920298884    6.59631818870067    3.13710125238181
C         0.49726597913394    6.90744702122713    5.00366316813226
H         0.02172097286410    7.85862564765527    5.19188767212318
C         1.40691355351022    6.39671392717035    5.91269841941613
H         1.64307302880213    6.94999902167996    6.81076914531526
C         2.02519516710318    5.18018737056459    5.67488035077247
H         2.74726417560799    4.80128191912157    6.38494949054919
C         3.30095303675189    3.39203436801948    2.55058999062690
C         4.01721377041351    4.58666692312756    2.56495585566654
H         4.05048396873187    5.18527532414744    3.46550048586988
C         4.67330046562754    5.02255600321563    1.43023672013823
H         5.22609877334308    5.95077093510992    1.45202876290783
C         4.61974828235071    4.27330558426838    0.26533466732999
H         5.13339499926129    4.61550789163016   -0.62117562891919
C         3.90160245805183    3.09094441969948    0.24128603519670
H         3.85070389334902    2.50670198656189   -0.66603039293989
C         3.24303324480984    2.65307478442611    1.37808551257250
H         2.67475503585004    1.73359974630516    1.35786478387707
C         0.37633867008574    2.45902525296712    7.12591505874230
H         0.86703296866179    3.41959594442034    6.97249687934911
H         1.12664461853409    1.71632142350679    7.39901961341945
H        -0.36989564272170    2.53261250438437    7.91701168367915
C        -1.45787647393737    3.34915234279057    5.13160413567492
C        -2.04146377921253    3.35776474938059    3.86814792175708
H        -1.82423807378806    2.54494091334849    3.18899927712520
C        -2.88353445198190    4.38330883624103    3.48430693929902
H        -3.33313015230351    4.37448625586205    2.50159128990823
C        -3.14623790006740    5.42398125850690    4.35993283255325
H        -3.79916020068224    6.23204599363995    4.06330447909279
C        -2.56797101380251    5.42485492570882    5.61731438773301
H        -2.77062915258434    6.23435828693045    6.30392142828063
C        -1.73260842936553    4.39250750723593    6.00629515557637
H        -1.29871567799975    4.41387701533825    6.99372427578399
C        -1.65998154521072    0.80429652708757    6.26377224044068
C        -1.21601927495833   -0.18509133748602    7.13873158134662
H        -0.15750022855840   -0.27719064310596    7.34348794296915
C        -2.11911924359316   -1.04613569876555    7.73424089948088
H        -1.76683047873838   -1.80987724663999    8.41338260407469
C        -3.47337329629320   -0.92656009972541    7.46562126365555
H        -4.18003226549522   -1.59353028835571    7.93787178548887
C        -3.91706464956645    0.04938243147160    6.59019957075714
H        -4.97158679736607    0.14588670837586    6.37566129903942
C        -3.01659087453690    0.90865416924521    5.98510357842535
H        -3.37404707410130    1.66276416413307    5.29857176059408
C         0.14644841818737   -2.28097772212729    4.77644434613873
H        -0.32607513192458   -2.01438474308953    5.72006476199740
H         1.20916896676965   -2.44007354922109    4.95904669520425
H        -0.29818789427204   -3.18479892155225    4.35796432409314
C        -1.80724928707969   -0.79930065979868    3.28374103103048
C        -2.75515404957835   -1.54393936208241    3.97171522344707
H        -2.45679456210131   -2.23643583374511    4.74339855252540
C        -4.10064923216722   -1.39702853535038    3.67810627045911
H        -4.83011414819533   -1.98275009802800    4.21860391025120
C        -4.51310543728527   -0.50658152639560    2.70311390925637
H        -5.56427567376542   -0.39289528738732    2.48167691230259
C        -3.57240761157030    0.23744911737899    2.00805703136011
H        -3.88812260755704    0.92959027163324    1.24045242288972
C        -2.23027105328223    0.08956565200703    2.29725361171961
H        -1.48348358646140    0.65334306884331    1.75177756697252
C         0.55089391435646   -1.81429439653171    2.09795683857046
C         1.89510965550689   -2.17613385773287    2.06162478670169
H         2.54814375549092   -1.86858194070079    2.86826995130729
C         2.39846749258932   -2.90815673429292    1.00424250402463
H         3.44315518888929   -3.18298880190506    0.98706262382688
C         1.56236311814831   -3.28777853514830   -0.03405732728555
H         1.95341550237142   -3.85700998036650   -0.86466337720033
C         0.22476507281360   -2.93573163428490   -0.00226533704187
H        -0.43194175692212   -3.23186632027360   -0.80777894947550
C        -0.28352525195423   -2.20615936449780    1.06000794166758
H        -1.33192681488214   -1.94563381514956    1.07396640062330
P         2.46396975988174    2.84943935648848    4.08715469774065
P        -0.39840931484306    1.92032617689953    5.54982849503627
P        -0.01158199247496   -0.90098844081115    3.58393174571638
Cl        2.19544184542749    0.00869786381864    5.83544853384699
Rh        1.09669481033597    1.04629356371369    3.99771278963466
H         2.16031101939090    0.47860061486539    3.09374285552776
H         0.44057703795347    1.66445543538752    2.78462214532832

