109
CSD_code = EFAQAD | q = 0 | S = 0 | Stoichiometry = C50H44N8O4P2Pt | MND = 4
Pt        2.12815758969343    2.31605785068178   16.67094795737349
P         2.26833721711118    0.40924400586822   15.39259834760442
P         1.99952024091461    1.36024654634526   18.75900397442959
N        -1.17182552157241    3.21633249668097   13.55683699888487
C        -2.50697129197152    2.66294875244982   13.68810488972867
H        -3.22970434423681    3.46400642689823   13.84644228788335
H        -2.49717420861478    1.98778185064160   14.54065675549697
H        -2.77365929590751    2.12987853591907   12.77651172683296
C        -0.95373451358194    3.98039428840928   12.41143848054181
O        -1.84022500175896    4.14070406873698   11.59654136886891
N         0.28979813082028    4.53391486579873   12.23980449494946
C         0.55013285762241    5.33484593417392   11.06373307058533
H         0.15001027611385    4.82876407529285   10.18534599435785
H         1.62691845774839    5.46097491492200   10.98656117746799
H         0.06640011482487    6.30899804319603   11.15375525922750
C         1.27299413499296    4.28797932813464   13.15206101250361
C         1.01980647381507    3.49969257251962   14.26935721505852
C        -0.23436412554261    2.90640424935680   14.53219387139942
O        -0.50059644246034    2.17735685158231   15.49085843604198
N         2.20203398084448    3.38347227702058   14.94889418204879
C         3.07123532928327    4.10063490320500   14.23934462169345
H         4.10340277678260    4.21483934757251   14.51358814491364
N         2.56398512288560    4.66472433631816   13.14048318350288
N         5.41363057008227    4.73938939472950   18.84559471298569
C         6.75357519381797    4.20975156961983   19.01978608910712
H         7.46989102850289    4.81437454505814   18.46260682315422
H         6.75051742853410    3.18777987594545   18.64785707220727
H         7.02336810530106    4.23601777177489   20.07465063350613
C         5.18747449949060    5.98780313047114   19.42309748226448
O         6.07220633683947    6.55481219568940   20.03286723852383
N         3.93895505624586    6.53946725509711   19.28284014726620
C         3.66347717365952    7.83676202684115   19.85995183521429
H         4.22790657732756    7.93838682788069   20.78588640926797
H         2.59310410805789    7.90023367927546   20.04046374515566
H         3.96474403568435    8.63082225674850   19.17396569845604
C         2.96049882273063    5.84447837454900   18.63503298791305
C         3.22199648851483    4.59022273570597   18.09444324252178
C         4.48156014114341    3.95743699619074   18.17765840837351
O         4.75636971885414    2.83718861392675   17.74084870245676
N         2.04181341064187    4.12584004985584   17.58046019133807
C         1.16519979827062    5.10090608432115   17.81358648146499
H         0.13237204259209    5.04601372895229   17.52400422226192
N         1.66607732155400    6.16062048805696   18.45314644746465
C         1.44183284237653    0.48356073379409   13.76400116061063
C         0.17989514529361   -0.04751961990877   13.52776200143040
H        -0.33197281947746   -0.59298850107168   14.30615988180706
C        -0.42934221249074    0.13193096927124   12.29773563622848
H        -1.41158098642586   -0.28263325866612   12.12398616150669
C         0.20741786074951    0.84591276773514   11.29692619564824
H        -0.28139488978494    1.00109344727434   10.34688221624794
C         1.47377177970598    1.36194303876462   11.52019455542500
H         1.98061981809056    1.91692027111194   10.74478989028829
C         2.08884305657484    1.18004647426058   12.74423368852885
H         3.07521710129246    1.59072738001295   12.91681130272231
C         3.94251301625858   -0.03572324487110   14.84484295811342
C         4.14644151032794   -1.07734541052278   13.94226172346669
H         3.29995334262897   -1.63445545702121   13.56306689809292
C         5.42656295617824   -1.38077155647302   13.51854832399106
H         5.58449091951009   -2.19248950688331   12.82334776778010
C         6.50539860146751   -0.63906244061777   13.97616123044604
H         7.50342281302920   -0.87939104565507   13.64022426294547
C         6.30116221303057    0.41754045941719   14.84736689783390
H         7.13844985277881    1.00873898997617   15.18730602718344
C         5.02198653600758    0.72310711366225   15.28028431501117
H         4.85178665411324    1.55604810995157   15.94989133466443
C         1.54442559144624   -1.08948334295252   16.12958920422609
C         2.17013120042952   -2.32701296264282   16.19067430823378
H         3.16954258987911   -2.45404051577327   15.80237876394457
C         1.51518051768393   -3.40031615000885   16.77025101108061
H         2.00389656561886   -4.36258171870959   16.81276472577516
C         0.24396666380532   -3.24607624510536   17.29638175069821
H        -0.25974305233279   -4.08905356447155   17.74585038056032
C        -0.37672358341886   -2.00763504198009   17.25380598546045
H        -1.36382430815925   -1.87908224783114   17.67356136847749
C         0.27087869776525   -0.93322976229748   16.67464676281562
H        -0.20063129860353    0.03864807739314   16.62949573354064
C         2.82468715786925    2.28135616307314   20.10507815211371
C         2.17170110992581    3.40336994621173   20.61336370931357
H         1.18179488388656    3.65608571719834   20.25609840108552
C         2.78523431583938    4.20266334541463   21.55908199162150
H         2.27358990202438    5.07704779834380   21.93300685672840
C         4.05613537037414    3.88907659980259   22.01317500401888
H         4.54338045204971    4.52165127353041   22.73980828060155
C         4.69916739378475    2.76218016995549   21.53000387720405
H         5.68511373747100    2.50699554169909   21.89001084296211
C         4.09134895097976    1.96167929598257   20.57814105647503
H         4.60807630730326    1.09378941251712   20.19712557562090
C         0.32734617117451    1.26026336391037   19.46227281061531
C         0.12802189628112    0.84576367998393   20.77745548111216
H         0.97696671659555    0.57381010032233   21.39066492903414
C        -1.15077457557852    0.80448669672843   21.30022789374888
H        -1.30511581313357    0.47726047621424   22.31818549378751
C        -2.23290270736415    1.19197045568642   20.52415540828489
H        -3.22984637451559    1.15975954308901   20.93856105084276
C        -2.03338045772867    1.63540944299917   19.22774454082307
H        -2.87329618513786    1.95724905747253   18.63018080314899
C        -0.75556284638277    1.67348578173390   18.69594723528605
H        -0.58908216822086    2.03187692016394   17.68848329496251
C         2.73252786517739   -0.29849596771840   18.91602968498128
C         4.00559333439403   -0.44464248448765   18.36708525980922
H         4.47098291413517    0.40863783849502   17.89350402807547
C         4.66031583636178   -1.65937850054585   18.43709444522742
H         5.64702497339483   -1.76486482604068   18.01004850040554
C         4.04721534823480   -2.73905546206003   19.05290363956977
H         4.55657226642417   -3.68952208196410   19.11222674240632
C         2.77633616608920   -2.60123181002322   19.58436734999344
H         2.29350601940724   -3.44517650330578   20.05472934964227
C         2.11430084890254   -1.38723388669698   19.51530944922974
H         1.11523067897591   -1.29709745916935   19.91463241416772

