113
CSD_code = EFECUO | q = 0 | S = 0 | Stoichiometry = C37H68N3OSi3Y | MND = 4
Y         3.19937882806489   15.10290781411539    9.37434489971195
Si        5.38801288148621   13.05981074166038   10.80819526137848
Si        1.17566336148628   17.94158622315652    8.79126894027703
Si        2.71718100122159   16.86884555927831    6.48032782837734
O         2.13016539100211   13.16803154376002    8.05792645509613
N         2.80140906181468   14.21844075646191   11.20964210166971
N         5.19028434863229   14.06511015331450    9.43765749914854
N         2.25791778911730   16.76170853107570    8.13946216373127
C         1.84613066070549   14.57604953167309   12.18772218674436
C         0.55528582238695   14.01888512947207   12.16663246953820
C        -0.36544570277107   14.38935052940483   13.13542791762376
H        -1.35838188631255   13.96327623130600   13.12314433177204
C        -0.03326100424403   15.29791081794228   14.12114635816849
H        -0.76176402301959   15.58032661894282   14.86717619147789
C         1.23548465838676   15.84705921244956   14.14709788397425
H         1.48357652331220   16.56356924994910   14.91586478761089
C         2.18521073507854   15.48991708835861   13.20379734956218
C         3.55601160889317   16.12935116476348   13.20088987553942
H         4.21572078528015   15.50606109115042   12.58707135105196
C         3.45920325956723   17.50777718466417   12.53800169293504
H         3.13160484388960   17.39814005460094   11.49852339940931
H         4.42691255080254   18.00611613028920   12.55719315525950
H         2.73949784090887   18.13200998572351   13.06488556675972
C         4.16921247805521   16.23746262081617   14.59684078665171
H         3.64514201756129   16.97010870502424   15.20568653781493
H         5.21011108656069   16.54678759614451   14.52230592011072
H         4.13193414209198   15.27625287671992   15.10438398680528
C         0.17465015755762   13.02573289072091   11.09139393211281
H         1.03121846739646   12.93578432042039   10.41056832205688
C        -0.11071221957399   11.65634077967124   11.71356540614115
H         0.75942726297155   11.30188035825437   12.26181318177838
H        -0.35898500931017   10.92499088655192   10.94536368740725
H        -0.94724960457217   11.71565984694533   12.40610701235935
C        -1.02628044345190   13.51317471920775   10.27740782894744
H        -1.89975179052037   13.64719755315877   10.91108283620995
H        -1.27791862363809   12.78797474576385    9.50506822628346
H        -0.79590700860450   14.46474244439918    9.80222615253266
C         3.65193267889547   13.11273650612607   11.65706059978716
H         3.13225698842729   12.15363380097345   11.48842058974263
H         3.78927981493440   13.17170280455563   12.74526083449712
C         5.75579667002239   11.17671247248937   10.62424988509244
H         5.15779677468829   10.68602604213279    9.86188526988569
H         5.55207134837082   10.67285024510177   11.56511234405023
H         6.79758383991752   10.99906767400638   10.38490431913272
C         6.75276452147165   13.64317825305171   12.02915821061800
H         7.68575204409840   13.78511812719530   11.49186086988520
H         6.93214445827841   12.90382380237342   12.80316860950746
H         6.50885246027260   14.57969385961819   12.52059242487942
C         6.24559472884121   14.56505934116912    8.66351367092249
C         6.73612996148407   15.87322748839605    8.87935218407677
C         7.73293653151016   16.38391962919368    8.06268558135951
H         8.09687773556410   17.38750938208902    8.22939034700467
C         8.28087687926374   15.63390644059254    7.04061853287596
H         9.05656774561551   16.04659532768116    6.41272172556500
C         7.82683729343673   14.34546326422179    6.84098310082150
H         8.26104711954844   13.75215232803271    6.04960995070087
C         6.82789586600822   13.79951503576578    7.63115604091489
C         6.38814429887916   12.37871062727489    7.36827635389534
H         5.59851675582467   12.14418150921398    8.08465403111735
C         7.55474453543504   11.41263755244282    7.58924866258747
H         8.31211245042727   11.53975267650250    6.81915539091651
H         7.20703106086095   10.38188838205857    7.55946030418589
H         8.01876406896263   11.59672679370397    8.55451423201655
C         5.83041062148156   12.20407795991047    5.95306448308819
H         4.99410367930278   12.87722146710074    5.78286510884149
H         5.49368412138877   11.17826963586442    5.80713365595725
H         6.59132821984163   12.41788853152751    5.20632519606184
C         6.19358484285645   16.74858972827411    9.99050128654605
H         5.46273205559554   16.16044572673481   10.57299121358006
C         5.48306506827690   17.98048496898881    9.41383719866173
H         6.15425303856597   18.53402133696270    8.75978719559194
H         5.16921370354110   18.64730941918462   10.21499604250166
H         4.60115845570732   17.68881567945849    8.83602856638677
C         7.31290148641626   17.18083045012231   10.94288426733683
H         7.87043391966439   16.31615828182720   11.29222356986891
H         6.89697461552015   17.69747007096587   11.80594435922489
H         8.00635658450639   17.85586249181860   10.44727026265018
C         0.32239568305078   17.20345322909312   10.34004691062283
H        -0.72504679932537   16.99245604419585   10.14941121283143
H         0.36010046567967   17.89178787828044   11.17773656196575
H         0.79365840260093   16.27405359279085   10.66042757016592
C         2.05678876705248   19.56217413232582    9.32392959017350
H         2.70229806337075   19.42033713957183   10.18480031766266
H         1.32872040894611   20.32348170312886    9.58652074079237
H         2.66644433405003   19.95578215584789    8.51813918384743
C        -0.21896255348358   18.48334734793442    7.60364142659556
H         0.18783005129606   19.00009247638968    6.74232239088374
H        -0.91054392684995   19.15858859051453    8.09734284289128
H        -0.79031184940134   17.63750295384983    7.23710290393823
C         3.39601807587575   18.56826367872370    5.92675953836240
H         2.63535705771407   19.33421547173949    6.03111161104109
H         3.70031411550943   18.54628748658510    4.88503335926429
H         4.25578306176958   18.87589290188886    6.51285645065112
C         1.30004900360772   16.45068966816565    5.24913501047402
H         1.64418245241174   15.83369469867580    4.42424911915788
H         0.89314388056285   17.36042446996178    4.82162308617540
H         0.48106231282793   15.93060669356222    5.73421274334941
C         4.12471650181421   15.59958937218183    6.19927888896377
H         5.09455427875396   16.02286047248742    6.44413192492988
H         4.16867547856678   15.28682154145661    5.16012635432497
H         3.98972463671560   14.70251298525074    6.81028159371369
C         2.57749995986652   11.81201490812027    8.05636930395577
H         3.10318186949209   11.63568513757622    8.99570546931340
H         3.25846719353344   11.64522781896290    7.21089882605325
C         1.30244870277065   10.99034006064295    7.88896588948725
H         0.79192690736583   10.90217939876015    8.84681952695498
H         1.50011201836435    9.99387695587883    7.50188148385008
C         0.48698292336491   11.85292269647695    6.91860817341267
H        -0.57139328678069   11.85124889455741    7.16915857986394
H         0.59340046658670   11.49395252269960    5.89592144999375
C         1.10488483261695   13.25718410053019    7.06260651389353
H         1.54488820046301   13.59005194336972    6.11484921832432
H         0.38964901732966   14.00913207581467    7.40351427574745

