73
CSD_code = EFEDUP | q = 0 | S = 0 | Stoichiometry = C30H36CrN2O4 | MND = 6
Cr       10.42564505355232    1.17801095308275    4.61064990605522
N        10.15361218396868    0.26990152836939    6.37247363321838
N         9.03017978254395   -0.19372060148532    4.19398946734182
O         8.88231790919615    3.73740070743857    4.84397667717909
O        12.53942363772599    3.04558665842352    5.62516076623864
O        13.00085194055861    0.06513209540843    3.56172270732452
O        10.57549440034723    2.22201514007923    1.80437300478015
C        10.42586537989350    1.53189875503926    8.43765370230492
C        11.16396146068853    1.79106228679348    9.58361513725323
H        10.83110500867486    2.55526324867909   10.26883969273610
C        12.31280519204453    1.07935624263550    9.86694635119791
H        12.87413180434404    1.29089516025230   10.76465988653095
C        12.73670482435009    0.09015252063898    9.00159491692516
H        13.62821603994203   -0.47116311110158    9.23455261703788
C        12.03027580897312   -0.19886446381758    7.84296060975753
C        10.87256593730266    0.53801414797110    7.55798899396538
C         9.15777698010011    2.30879395764449    8.16878345785645
H         8.76048905506855    2.00794513957897    7.19216541772185
C         9.44118828105918    3.81127914280960    8.11798772362338
H         9.72868989530127    4.18938908636420    9.09564333645895
H         8.55376729227651    4.34870368863725    7.79133547055959
H        10.24745074669291    4.01921482350997    7.41787194034999
C         8.09746275984918    1.98834087961743    9.22574678050727
H         7.87761099971161    0.92248551644040    9.23594182669441
H         7.17827158686836    2.52837465957985    9.00945591899522
H         8.43925892034096    2.27560559497475   10.21707681663835
C        12.51074091839080   -1.29919699312072    6.92407577976180
H        11.91048674450711   -1.28126101420741    6.00652624367670
C        13.97279162048051   -1.08855991127262    6.52618224558054
H        14.11926782372568   -0.07982239494050    6.14681833358693
H        14.25164852486715   -1.79346443945764    5.74605248711232
H        14.63803155024674   -1.23866494321619    7.37245163512183
C        12.31977204229926   -2.66646566756558    7.58666287727808
H        12.89255465081034   -2.73025167105788    8.50884558922532
H        12.65332191738031   -3.45729690240231    6.91825516015088
H        11.27112436180316   -2.83495241747608    7.82385525298858
C         9.25314542521625   -0.68515777074335    6.41228997651337
H         9.03118362463764   -1.23557086362058    7.32250723970915
C         8.62139439992731   -0.94286855011505    5.19217767562748
H         7.86118506927941   -1.70935320377307    5.06827597524178
C         9.05935990644714   -1.37948206704629    2.07292340625828
C         8.50044562122561   -1.59649814083886    0.82175805335947
H         8.94783012645067   -2.32011119811120    0.15807774501078
C         7.37479318409383   -0.90774996649553    0.41487176784969
H         6.95128205954764   -1.09006454828242   -0.56140787937655
C         6.78899237508027    0.00969739985754    1.26441075253235
H         5.90391102143334    0.53801728022134    0.94527107259366
C         7.31449856052667    0.25550105219370    2.52489011342036
C         8.46406366838774   -0.43812119925115    2.92330897695202
C        10.28194210559286   -2.16167175624467    2.49573188798879
H        10.63531688707231   -1.77254683005872    3.45797924685397
C         9.93147196000250   -3.63999702716362    2.68551349545084
H         9.15345612319571   -3.75567866616104    3.43766732211557
H        10.80938547343839   -4.19487514535114    3.00925037487278
H         9.57373528101038   -4.07429819829933    1.75503726874107
C        11.41600291126668   -1.99627506713885    1.48232699240538
H        11.17845584900371   -2.48585093385497    0.54147903411130
H        12.33200876115218   -2.43451847204629    1.87226818898238
H        11.59533741214784   -0.94146020884148    1.28636719004123
C         6.63923120128369    1.25171752631700    3.43907431551313
H         7.24082032900519    1.35986293841974    4.34940764304122
C         6.54804376619130    2.62528833999337    2.77149473538757
H         7.52702334738222    2.93510570082076    2.41209863451559
H         6.19252645196730    3.36535876876205    3.48492268438403
H         5.86219134319181    2.60702439092887    1.92845687385302
C         5.25194374679204    0.75074828232396    3.84946381477991
H         4.61105734710002    0.62946807000983    2.97958677102155
H         4.78225037300195    1.46146179459127    4.52592131308382
H         5.32626994631215   -0.21000236062850    4.35529737407583
C         9.34152942441352    2.68442057588016    4.83536924318310
C        11.71539033450002    2.32218910104139    5.26999820421907
C        11.97768623969421    0.33073222467658    4.01475783391506
C        10.48727530712580    1.80482132526313    2.87508231801416

