59
CSD_code = EFEDAW | q = 0 | S = 0 | Stoichiometry = C22H26N4NiO6 | MND = 6
Ni        2.41238961830594    2.80109594830050    4.33610830328090
O         0.74859266674468    3.03299308283481    3.30363336739523
O         3.65640850636830    1.79344253371424    2.46400245738923
O         5.46028303166166    1.32761166219273    3.68616179921767
H         4.88388642024786    1.83958090005599    4.45483903354488
N         1.78340981971091    1.06807282136232    4.62122866414809
N         0.32848168986784   -0.50373098227208    4.06700502525788
H        -0.45141282864642   -0.94886915876991    3.61373479254241
C         2.10524409770546   -0.06542492705235    5.32487748920942
C         3.12161244712996   -0.31311178673825    6.23946943010645
H         3.81316087359328    0.47430661127667    6.48866340955501
C         3.18736978524287   -1.57836945535703    6.78436511345897
H         3.96378965695299   -1.81064393630295    7.49767557259190
C         2.27303132798834   -2.57623652195385    6.43888730620059
H         2.36351408255687   -3.55226090439634    6.89184142257043
C         1.25587907203298   -2.34603457480194    5.53312112785319
H         0.54929113961238   -3.11799901961916    5.26788104843503
C         1.18428132901577   -1.07767294829586    4.97982199618273
C         0.73339428973798    0.77897379211072    3.88885630341747
C         0.17216841729962    1.81883040352629    2.97184603734907
H        -0.92738890441836    1.87261263505941    3.09896066764142
C         0.49509965432438    1.43559867537363    1.51583536642048
H         0.06914842453454    2.18080488656883    0.85010092703257
H         0.09346000388270    0.45557859286556    1.26712098612020
H         1.57647491885889    1.43939433410024    1.40168833904115
C         4.76189093694684    1.29520427373994    2.59445069522419
C         5.43815017783848    0.56177637938578    1.45386239281052
H         4.91071204692031    0.74853620783334    0.52373163568763
H         5.42749384242895   -0.50392686171728    1.67116801096074
H         6.47310715162261    0.88151254365282    1.37496530496884
O         4.07609383044899    2.56932263329657    5.36881407424516
O         1.16853513742395    3.80752925555118    6.20886321452196
O        -0.63623541573668    4.27237973624246    4.98762512478771
H        -0.05957232060060    3.76165745196574    4.21840932919828
N         3.04153048270278    4.53390630806625    4.05048353946956
N         4.49753307466906    6.10532509934280    4.60297540625595
H         5.27783356895241    6.55038357866567    5.05562695056647
C         2.72017808402733    5.66699034505624    3.34595028848222
C         1.70376050340105    5.91446927114852    2.43135635561926
H         1.01167209086936    5.12724299176501    2.18305878512804
C         1.63868938058911    7.17925064366530    1.88527424536005
H         0.86227333771234    7.41134269289583    1.17189505599180
C         2.55373202512438    8.17686097984153    2.22962875625966
H         2.46378905926341    9.15250491770566    1.77575000871929
C         3.57091897984108    7.94687504696803    3.13541270102489
H         4.27804771281772    8.71864744957503    3.39977573427734
C         3.64184173000057    6.67898421171158    3.68987952015670
C         4.09192999582889    4.82300034392816    4.78230243607299
C         4.65294945509897    3.78349562095071    5.69983219000596
H         5.75246631466056    3.72930956697651    5.57257434925209
C         4.33036754960788    4.16764081368215    7.15567608037959
H         4.75634286788626    3.42278373820149    7.82178402533960
H         4.73219389991094    5.14775713801905    7.40370231948643
H         3.24901813067279    4.16407008362017    7.27003994568846
C         0.06232600560163    4.30440223502127    6.07924630293873
C        -0.61463356831976    5.03583162238208    7.22073351964823
H        -0.08688563110480    4.84823033870542    8.15066875963472
H        -0.60472932430326    6.10204380162058    7.00468048697875
H        -1.64959065311344    4.71511687674878    7.29917646889591

