54
CSD_code = EFELOR | q = 0 | S = 0 | Stoichiometry = C21H18BF3MoN6O4 | MND = 8
B        12.89538746425031    8.41071730213378    5.36639834569768
H        13.06415210219914    8.40983787850445    6.53421230367244
C        15.25973833338439    7.35271693430342    2.87502088827228
H        15.51729235643119    7.31960874466828    1.83201386981113
C        16.00842068782141    6.95273700753967    3.97756326507446
H        16.98321660425330    6.51151077760756    3.98166322128559
C        15.21476834363841    7.26054073221700    5.06564856634046
H        15.39405672694843    7.13405401784971    6.11392605734492
C        10.03661767378714    6.96704461153155    3.71414919526141
H         9.48800660093797    6.76478612688668    2.81392660588679
C         9.63813570596462    6.70772240645598    5.02295764869104
H         8.72550569961567    6.25590348693654    5.35106159458029
C        10.68308117573934    7.16804066708946    5.79339894483631
H        10.81228331019603    7.17645321094557    6.85610985869684
C        12.44737983324310   11.28890960521098    3.24868834841929
H        12.28390854855173   11.66428358910231    2.25561382997020
C        12.56736349319273   11.99171283738213    4.44403137218356
H        12.52451218258651   13.05106477972033    4.58757128339362
C        12.75500412493169   11.01690897014359    5.40376476893158
H        12.89362815115212   11.10057527495365    6.46265732560620
C        10.76660586417063    7.87724041373957    0.52197321936907
H         9.69718299093471    7.71018109480936    0.70007131123638
C        11.59564921557486    6.73671017764481    1.00424417402765
H        11.12584381835114    5.82990094034049    1.38321631391644
C        12.89946680267026    6.71557815511814    0.47026601772880
H        13.53515325487228    5.86558869176305    0.71354393435867
C        13.24636607041610    7.41428882767442   -0.74096155370797
C        10.99556278635941    8.11573545681202   -0.97206513498156
H        10.56181076570293    7.26976570270192   -1.53196406455500
H        10.51318903465143    9.04290830790834   -1.30116575737233
C        14.48139027351282    7.28489449033385   -1.33040727392494
H        15.20316562094124    6.63661505789539   -0.85463461315512
C        14.85965784694312    7.96490624310406   -2.49924226018608
H        14.13021667531417    8.61791061145813   -2.95854657198433
C        16.08097790414788    7.85450413631418   -3.09620615433292
H        16.84977060412601    7.22377706164465   -2.67496008938419
C        16.38183942226042    8.56671141858066   -4.29643758744139
C        17.82900816525495    8.29181373705640   -4.80170381399076
C        13.58810950024187    9.39624180029233    0.88555260195964
C        10.99023549364555    9.36928401091509    1.25449239910919
F        18.14590318939666    8.97671404653382   -5.89951525751307
F        18.75230410679319    8.59638960346816   -3.86740313411702
F        18.01096856933061    6.98540453443717   -5.08715872908300
Mo       12.45490219523471    8.37589987009686    2.09138265797143
N        14.09592774937493    7.85132834882229    3.28020531209753
N        14.07562041985978    7.79464630857852    4.61133070299664
N        11.23706778562642    7.53397497816303    3.70025185455776
N        11.62341223505090    7.65776892765890    4.97302612638010
N        12.55659088347670    9.98649875411051    3.48362820829679
N        12.74254599926951    9.82545168649519    4.79523889316234
O        12.35159197311288    8.25409884233546   -1.32014007423276
O        14.21675911303590   10.09828558336127    0.23910871201598
O        10.31668189763620   10.28956059591525    0.96014409012721
O        15.66466265401209    9.31319262267721   -4.93104175344192

