57
CSD_code = EFEMAF | q = 1 | S = 0 | Stoichiometry = C26H22AuCl2N6(1+) | MND = 4
Au        5.82732641430812    9.99248521141884    9.44379759367656
Cl        6.75349086080109    9.96638356629301    7.37894656218056
Cl        6.63781296175484   12.06143368527641    9.87276375823623
C         5.05763411924420    9.95139675512294   11.29952457333167
N         4.21037138050887    7.82576888934887    8.07363786415689
C         5.04029151239498    8.18245224905874    9.06664999858640
N         3.79543615388459    9.57040917241187   11.59701721985597
N         5.09648633999637    7.12952976576523    9.91216512595200
N         5.69954803434610   10.08069011913313   12.47146226763558
C         3.83128488022326    8.53128401766975    6.96371748318692
H         4.27779775233598    9.50391414224375    6.83886450046053
C         4.30018750181198    6.10507276664332    9.48839919077460
C         3.73286520811909    6.53523265054772    8.30352879937956
C         4.83100798617027    9.76852281585923   13.51764102955030
C         3.61872453067169    9.43427032713645   12.94362867684250
C         5.90708200920333    7.11125806235993   11.07431855060954
C         7.25723516697859    7.43068942292194   10.98318818520696
H         7.71005290230620    7.65823721246162   10.03105893517942
C         6.01756591065697    6.75914341550068   13.31126080527415
H         5.47651357653384    6.47839376841073   14.20356863442401
N         5.29969700477381    6.78404683628258   12.20116104012819
C         2.79622618275905    9.36536061587651   10.61356768088058
N         2.15196430877583    8.21325976730417   10.67163228084753
C         5.29694029932428    9.83498355490251   14.84915983892128
H         4.61530340636305    9.59679289083042   15.64876846522684
C         6.99188939864378   10.45935026131743   12.71629993508059
H         7.58416736940532   10.72519716387422   11.85635966978093
C         6.58321969795333   10.20721297070062   15.08151521229022
H         6.96496857566755   10.27428994801978   16.08687587891997
C         7.43574361108456   10.52937800484826   13.99293558778460
H         8.44866311474192   10.84202661330736   14.18443221992819
C         7.36884309886954    7.06850685251055   13.34425075517166
H         7.91623579378098    7.03332641907610   14.27163224437671
C         7.99786871167144    7.40897354328042   12.15537481787866
H         9.05119815750448    7.64136168611022   12.13454722839368
C         2.97870233064580    7.96930813384941    6.07544632156192
H         2.69346857626869    8.52005465839834    5.19468717718128
C         2.83757917372211    5.95224837422013    7.37989962722871
H         2.48035486617621    4.95284110335352    7.56521573127548
C         2.46442459507720    6.66234237950989    6.28281395401013
H         1.78937220442553    6.24088417254333    5.55640155747089
C         2.54832645963932   10.34745618956006    9.66097570256697
H         3.08089600667207   11.28523361036846    9.67982744077664
C         0.88827909048339    8.87705901452812    8.76604241323122
H         0.11582378019752    8.64443446699191    8.05181110242530
C         1.56903279839432   10.08496014475482    8.71482042243489
H         1.33487064618863   10.81939465898327    7.95999782559821
C         4.15244883096531    4.82941735694939   10.22042948386488
H         3.72939529881041    5.01228418779589   11.20675846845581
H         5.12091819512140    4.34932200270830   10.35708345940776
H         3.50302991558819    4.15742494970793    9.66868599468136
C         2.34327578789090    9.01494513872631   13.56191617380886
H         1.53504598324163    9.68493507973172   13.27030435952100
H         2.43380223235756    9.02473145239862   14.64339048849529
H         2.08024202807870    8.01190466710562   13.23009281098131
C         1.21475004332687    7.97728496055028    9.76933219031308
H         0.71241722314346    7.02529815345815    9.86501468454058

