62
CSD_code = EFEVOB | q = 0 | S = 0 | Stoichiometry = C28H18F7IrN8 | MND = 6
Ir       10.18607237170279    7.48527509993834    7.23429923690613
N        11.94523439207633    6.50660973081981    7.27021454547170
N        12.43606136745063    5.75955105613128    6.28279754518729
N         8.46654297583605    8.53955188323093    7.30243555518379
N         8.32523597477027    9.61624902073213    8.07354554201496
N         9.02396530434351    5.57703709312419    7.24773802530964
N         9.96942763589359    7.07918270963226    9.30088173297358
N        10.32836732645830    7.59780992460241   10.46452676246346
N         9.46235743984748    5.57471266356962   10.85189359595151
C        12.89250418224082    6.59606229732372    8.19828509597865
H        12.74225602059582    7.16620417887416    9.09388569923786
C        14.01683440682181    5.87790846243684    7.79724361733710
H        14.93739894323154    5.76090428607167    8.32885505534702
C        13.68548801191739    5.35833074280332    6.56499133366222
H        14.24979627033114    4.74440265235160    5.89257825250037
C        11.64896885619317    5.40932555139818    5.13017596626831
H        10.86631466284659    4.70487073270235    5.44087191692135
H        12.30447035230702    4.89591852611672    4.42395040486306
C        11.01637818832642    6.61471556762090    4.46435537772911
C        11.09535163705571    6.70030462851914    3.07943648596189
C        10.54357823205362    7.73635777279452    2.35563562697258
H        10.61897429036874    7.77701158966132    1.28248620513966
C         9.90240628097421    8.71796326316766    3.08696633978719
C         9.80723638741383    8.66930416631156    4.46327000382641
H         9.30371156983960    9.48555484285388    4.95740844806046
C        10.35046551847359    7.61127315284527    5.19823418401244
C         7.29188932145699    8.32626716908449    6.71536483339009
H         7.15176339234456    7.51743816309264    6.02609690297315
C         6.37472554156195    9.28977392048408    7.12357517165286
H         5.35168583376095    9.38499795365651    6.82611074066429
C         7.07853695370985   10.09854392755784    7.99166820978223
H         6.76722395994428   10.96539024054486    8.53839419630964
C         9.40188713861432   10.14790288286820    8.87294706495239
H         9.62431224281553    9.46196999557848    9.70099785127985
H         9.07274365736994   11.10212007877874    9.28620610279104
C        10.66486301048271   10.32459881031523    8.06513470429638
C        11.32715203118515   11.54441586536741    8.10834932220678
C        12.51323201590696   11.77753569704058    7.44241936718131
H        13.01053158256925   12.73107065255167    7.49470493792154
C        13.02090254664528   10.72446024002900    6.70727759508137
C        12.38404415348807    9.50096660143418    6.62869722966694
H        12.84076677510773    8.74128219450026    6.01342335224736
C        11.19044919330297    9.26655680140355    7.31276904293765
C         8.45563279897084    4.92698026328346    6.23821895356285
H         8.55553592831942    5.38467502852906    5.26229197490739
C         7.76933776548337    3.73755881531482    6.39767332813922
H         7.32620227869391    3.25033342416333    5.54402468566747
C         7.66788481918265    3.18983664373677    7.67247108657766
H         7.14753413620918    2.25719562542638    7.82912759377071
C         8.23412743547690    3.86706877537593    8.73186129656164
H         8.17993008007369    3.51130446034765    9.74759570557759
C         8.89877058683656    5.06882735007878    8.48238434460245
C         9.45084490914698    5.86450899539629    9.54555016146453
C        10.01529579266396    6.67418065622656   11.37135000322197
C        10.25756390910497    6.84847066770472   12.82457886067048
F        11.73408623402012    5.71787869018567    2.39580863687883
F         9.34661900088854    9.75560574314110    2.42876872289335
F        10.79305484417164   12.55670110842679    8.83031584333292
F        14.17800836192895   10.89901075048700    6.03603132055309
F        11.21269517908654    6.02049541650176   13.28919053720824
F         9.16079960107646    6.60553300924765   13.56310227264912
F        10.65346838903259    8.09205178650572   13.13045549135140

