38
CSD_code = EFEWUI | q = 0 | S = 0 | Stoichiometry = C10H18N6S3Zn | MND = 4
Zn        5.56368911417491    6.99550008934262    3.67748760656798
S         9.43949601150567    7.65844355601660    2.21532387557573
S         4.71385680783014    4.80985434312821    3.46810238765836
S         4.45473246299989    8.85033843692957    4.61301275562117
N         5.17323635681680    9.33610216772135    2.01974258805985
N         7.28733779984599    6.06625170465087    4.44440459092015
C         7.93368325202685    7.09706255060208    1.32173881358502
N         3.49571948239965   10.56683564874795    2.92386805198122
C         6.97770511344890    8.22446608156986    1.22800047636980
N         5.62876583600986    3.06265560737455    5.14813930415832
N         6.01876958202919    8.28840657521147    2.08369343873662
C         6.45357512657498    2.38099027308727    6.10953154569876
N         7.03419958585833    4.82909053072774    4.91477695719023
C         3.30236336050887   11.37102265682764    1.74666293747479
C         9.65279862885392    5.67977015628824    4.95984032245430
C         8.49932522946539    6.49739299409285    4.47842859499007
C         7.23744569129407    9.27570750347186    0.19940126599753
C         8.78606270989647    7.84068399056302    3.92440614352965
C         5.90903705850376    4.25630660034497    4.60475034781667
C         4.40625611688264    9.58835859963779    3.03849694865654
H         7.52315614120207    6.23885214714488    1.85497923330533
H         8.29802831486703    6.79367346615239    0.34187766057564
H         6.80513970628791    1.42791900340984    5.70698848029667
H         5.89111315108267    2.19183373105292    7.02620616837575
H         7.30573336131282    3.01715517584784    6.33278239939384
H         2.23827639183140   11.44479555679498    1.51927092211761
H         3.81970389413109   10.89057283310841    0.92050546934558
H         3.70583824812859   12.37765211977504    1.88759573413091
H        10.53744495589189    5.89305620261942    4.36393890777967
H         9.86693841127447    5.92639642931719    5.99978617570337
H         9.40433105641485    4.62290762206362    4.90282002357331
H         6.76645570049004   10.20840568604516    0.49922433378432
H         6.81170453380071    8.96584688658645   -0.75500278395991
H         8.30841490645267    9.41642415654470    0.07061284819959
H         9.58610842430794    8.34003386441596    4.46801794645089
H         7.90169619152076    8.47765428028631    3.88357086389880
H         4.77411387614895    2.62278828932237    4.84488648373503
H         2.98284740792886   10.80069248317780    3.75943018025178

