71
CSD_code = EFEWAO | q = 0 | S = 0 | Stoichiometry = C20H32F6FeN4O6S2 | MND = 6
Fe        6.43083944059368    3.36538339077357   10.29418869934343
S         4.01677799364735    4.17345692243822   11.66589489175893
O         5.34164122433783    4.66702184131707   11.23425199938207
N         5.31197503852488    3.50546625993521    8.81166486941919
F         4.21112931485691    6.52764819032167   12.99792221093811
C         4.37330934530137    4.41387124363019    8.58971418581179
H         4.47075605606418    5.32229338216431    9.15403453492550
S         4.17423059465335    0.99855118345823   10.78884158951346
N         7.38312731312432    2.08525198137393    9.19856657127568
F         2.15868677929538    6.05121985943582   12.54141482949636
C         3.34901998045829    4.22586837340845    7.68023527658571
H         2.60077507782009    4.98958804890062    7.55287586504383
O         3.95591572981949    3.53845067015116   12.94279207141134
O         3.08787319866000    3.80858555987619   10.64414905536924
F         3.49170880871898    6.71353375403899   10.98043439334412
N         7.53349474362736    2.77073858841544   11.88064900353859
C         3.29494059849842    3.03553359179886    6.97573536774337
H         2.50254981816660    2.84332478132699    6.26983912472379
O         5.00682585577146    2.18380842106211   11.01977020463217
F         2.51977011079921   -0.37041338686897   12.22093992249938
N         7.87700672960777    4.66922188945656    9.81028954111431
C         4.27873096317731    2.08640922285710    7.20275614549053
H         4.26863380910110    1.13716202472788    6.69289041251178
F         2.08109874535874    1.71446075513728   12.40407048642243
O         3.32067094346463    1.01454683370382    9.64751613061864
C         5.25667434726886    2.35155340455389    8.14377870392862
F         3.81229728369764    0.86433301245522   13.40337650094450
O         5.00517956941948   -0.18231802785476   10.90755596175306
C         6.31769984980377    1.36507629486605    8.51647197661732
H         5.87967940998292    0.64833344221452    9.21140830424935
H         6.68865721049574    0.81798969497637    7.63878055784205
C         8.20314931381615    1.23416850808087   10.04913201513083
H         9.25105658673032    1.52055180506620    9.93846424726661
H         8.11728152919007    0.18308956754648    9.75875533616987
C         7.74543215920796    1.37480851132159   11.49435611283348
H         6.78651980888543    0.87074416726747   11.59757530576127
H         8.48141697473637    0.88424156325595   12.14097943468494
C         6.87152856797460    2.80943608467529   13.20545957812055
H         5.85784006945002    2.45885030800821   13.02768380581342
C         7.53998748512365    1.90472515211247   14.24822851410796
H         7.37133787894339    0.85223198330453   14.04466226653405
H         7.10123144625636    2.11970796509337   15.21760056755911
H         8.61166150199494    2.09132212435087   14.31608705280009
C         6.75290719701635    4.21505138962430   13.78252085870542
H         6.31859339405058    4.88191887516176   13.05201395486290
H         7.70110577535262    4.60637914283338   14.14643955154704
H         6.05807616317427    4.17223111477024   14.61511711706567
C         8.75648592434644    3.56065782030462   11.83977518227914
H         9.54266651018683    3.00666125723064   11.32810469706412
H         9.12935091881935    3.77871148238473   12.84315200650735
C         8.46741454142522    4.87516643435114   11.13322874743804
H         7.71743680307959    5.40799009452740   11.70781103346494
H         9.38841321916976    5.46756120870738   11.07369617745861
C         7.31343185887824    5.95087606584866    9.32644550637316
H         6.40249782218902    6.06194681080733    9.91441183258569
C         6.95337734216472    5.93001466902519    7.84416867042697
H         6.47037524174075    5.00564861338320    7.56699054180099
H         7.82687658896030    6.08724403637661    7.21440929834117
H         6.25800371980489    6.73965842243023    7.64443834550745
C         8.22207476391062    7.16494890195448    9.56129027724658
H         8.30582020516971    7.42425625532379   10.61080221729149
H         7.79476788240132    8.02142149465568    9.04803629890379
H         9.21782847068569    6.99584294867448    9.15507088956815
C         8.82854449716719    4.03948631834674    8.89011080806823
H         9.71091635700629    3.71748740338730    9.44245906318716
H         9.17048337284185    4.74039128353531    8.12699353436849
C         8.16497691045089    2.84096054280487    8.22124784118680
H         7.47199795300691    3.19790298534670    7.46403900300517
H         8.91209375286325    2.20354922544864    7.72907052080450
C         3.40961045596617    5.94221514260960   12.08749627460000
C         3.07575315174882    0.85299111601301   12.29246612532205

