78
CSD_code = EFICAZ | q = 0 | S = 0 | Stoichiometry = C32H38Cl2N2O3Ru | MND = 5
Ru       -1.55611451864254    4.63190023145768    3.01194749713121
Cl       -3.36941973393023    3.25858945578665    3.48880141571924
Cl       -2.37371494987341    6.18528286435661    4.39722283040524
N        -2.52584160130925    4.17719623265096    0.33094397296574
N        -0.63803775724213    3.12842623610822    0.53078777097863
C         0.50530971926633    2.53432336597643    1.12614614020788
C         1.75078277072861    3.14292448613661    0.97674251526031
C        -4.90435475723063    4.34345407688010    0.86002824250761
C        -3.50249039160077    6.33255323013311    0.91103743205786
C        -2.31666478686881    3.64667781727235   -1.01126398339025
H        -2.22830026512243    4.46945033066642   -1.73012405935560
H        -3.15446630272605    3.01582954598865   -1.31507841417481
C        -0.98784878583223    0.71811881002135    2.01144326244398
H        -1.69212034494001    1.43433958424565    2.43946463316489
H        -0.92770566010007   -0.14495349712615    2.66774290786109
H        -1.38414590679054    0.39016988046987    1.05078438797843
C        -5.84439076803594    6.48241739094656    1.50375451400980
C        -3.65785509979033    4.95877164605691    0.70120635457767
C        -1.54045639686091    3.86690314301237    1.17319911472247
C         1.49511852036324    0.77073441040652    2.39687432989004
H         1.39693916847444   -0.14963497419682    2.95406746556268
C         0.36025011982038    1.34596518859888    1.84479568979652
C         2.74880261848502    1.34650032648785    2.25232323228467
C        -4.60496453745861    7.07258882466107    1.31585985063972
H        -4.48448204827781    8.13086821324638    1.49937202554686
C        -2.18639280439130    7.02563708967639    0.70089065659515
H        -1.64551320787594    7.09166805347577    1.64784234171314
H        -2.35147183945966    8.04146743509660    0.34564130701002
H        -1.56138732587311    6.49878096991435   -0.02001113774534
C        -5.97830383834270    5.12335293934970    1.25667241237572
H        -6.93906096379211    4.65120968286773    1.40242403544669
C        -1.01068122698142    2.85816301874358   -0.85501966151801
H        -1.14832321211482    1.78292870657828   -1.00625190521788
H        -0.22464841176847    3.20066459161122   -1.53428587760365
C        -5.08390680807401    2.87337348409991    0.63687832855134
H        -5.20757879618066    2.65280522257378   -0.42504363464414
H        -5.97059570531235    2.52702177498733    1.15954592113294
H        -4.22893733709290    2.32599193941607    1.02666782181785
C         2.85944234674178    2.53406004655876    1.54374694145766
H         3.82960248451195    2.99724318514075    1.43348097152657
C         3.96909374835038    0.69944261894832    2.83150100624223
H         4.58080855874047    0.27492958067559    2.03520078762957
H         3.69732663503387   -0.09813270763005    3.51723597355201
H         4.57361795355864    1.42978710120049    3.36467158644728
C         1.89220693300251    4.42517918172774    0.21126815023972
H         2.02947778506681    4.22402658906332   -0.85249441880863
H         2.75781107263279    4.98171100187987    0.56242662452793
H         1.00265174635767    5.04078367307408    0.33318453676802
C        -7.00734618509965    7.28977603128330    1.99103853979100
H        -7.94823141993770    6.86553593024015    1.64836673653179
H        -6.93600897326485    8.32116338337377    1.65275242449654
H        -7.01447058981465    7.29240548061294    3.08116861905052
C         2.96450072559596    2.75569057009315    5.37562827043529
H         3.43706192652591    1.98609667380986    5.96569047669837
C        -0.38299564043612    3.54182321892478    4.02303707579528
H        -0.84887718112775    2.70565381789856    4.55612363012919
C         1.80155988092320    4.78584268108659    3.87279402411664
C         1.23100066439153    5.87264339188169    3.10595752232594
C         1.63458331571072    2.70324982569560    5.07457080363207
H         1.04056123012011    1.87412257233167    5.42811594014645
C         0.98937522068670    3.70140209386120    4.30175912725147
C         3.75766386626640    3.82584057554839    4.92460104916288
C         3.16588094184600    4.83283096609790    4.19050331911186
H         3.73140590128328    5.68066356191854    3.84165486838359
C         5.91467974476103    4.82597472848801    4.86770347100463
H         5.95941490844981    4.92122664607415    3.77788384112110
H         6.90334654393915    4.57497825442197    5.24857035319646
H         5.58919103271186    5.77643166571499    5.30133832380127
C         2.59369406894301    9.08259225123275    2.07910725356380
H         2.89020211762463    9.38079990711804    3.08085137770447
H         2.20071148917160    9.94779433422753    1.55333046063402
H         3.46941172608729    8.71348909848303    1.55179436941160
C         1.53011557397938    8.00311529105699    2.15061519806679
H         0.64193124641728    8.35734144203553    2.68638574804118
H         1.22202636281501    7.68471656309875    1.14718294142563
O         0.08134874295189    5.93197552712454    2.66333860090298
O         2.07721482987704    6.88458143159339    2.84850208327993
O         5.07518183734671    3.76635008543868    5.25868165448362

