95
CSD_code = EFICOO | q = 0 | S = 0 | Stoichiometry = C37H52N3OPPd | MND = 4
Pd        7.79386089910371    9.99328773174914   19.26292015260235
P         6.61672025516017   10.87401651175036   17.58962011966839
O         6.38255713124658   11.11343558158708   20.54740607882861
N         8.21132234893470    9.14331479240446   21.12463249049523
N        10.47405418473949    9.43610454403624   21.66846310917019
N         9.08759749805683    9.35199994941152   23.37854054159956
C         9.14524583623506    9.31633299771241   21.99992543616265
C        11.22269489957890    9.55805295899166   22.82321151124018
H        12.28541685104698    9.68005347985384   22.78779601360424
C        10.37776934196376    9.50311358992488   23.86440221222773
H        10.56492516064941    9.56543591107381   24.91590512386252
C        10.95549726287717    9.53762307842352   20.34007032610925
C        10.80726877489051   10.75515399787644   19.66018855495015
C        11.23445821913834   10.81232541463502   18.33639036628695
H        11.13980735299891   11.73323633020514   17.78122742392566
C        11.81279176501831    9.71139783471851   17.73327028963447
H        12.13804005324087    9.77183294009392   16.70482704935716
C        12.00649299846915    8.54041569266193   18.44251446519666
H        12.48631038905812    7.70456875589144   17.95930782219669
C        11.57636893883569    8.42846253839655   19.75790773409413
C        10.42061345198318   12.02079580687997   20.39928697823959
H        10.03872724054956   11.75901788655766   21.39062320748071
C         9.33445769580918   12.82087524162162   19.68187983917641
H         9.66478305169285   13.14205813513775   18.69619560941030
H         9.08077355683144   13.70496721241809   20.26368836756725
H         8.43188467072114   12.19770688409693   19.58091780917631
C        11.68405400748440   12.86748030069927   20.59679851735529
H        12.44728828045227   12.30217817919833   21.12789718486001
H        11.45033675940376   13.75824281620199   21.17582720183187
H        12.09337899392526   13.17596071979144   19.63782586035883
C        11.75228788860968    7.15530222128166   20.55746622865719
H        11.85623995650390    7.42836848722142   21.61322542101359
C        10.50795322097105    6.27077809193751   20.42520489561504
H         9.61097308846393    6.82234594805473   20.69944011226389
H        10.59536080181138    5.40152571537060   21.07424987390981
H        10.39756892067775    5.92447699466352   19.39969429187005
C        13.00386055784607    6.37142738658037   20.16268269109544
H        12.88965517226879    5.91163637602525   19.18440721144080
H        13.18018789633423    5.57688012651900   20.88471713455393
H        13.87650430330453    7.02085636437398   20.14520891646890
C         7.94504537591807    9.42745392332113   24.22246946160056
C         7.19849682233404   10.61295345756979   24.25904332352882
C         6.09832544882814   10.65905221804456   25.10231965757248
H         5.49170028424513   11.54805081898118   25.14448174882022
C         5.76717351865082    9.58261983566063   25.90290025093344
H         4.90464045933442    9.64037073987642   26.55029585909255
C         6.54434972250852    8.44301092464735   25.89132384409737
H         6.28985352421255    7.61990286708875   26.54029138209210
C         7.64470441871307    8.34225980023684   25.05149264878856
C         7.62447421025773   11.82335614996873   23.45681792708099
H         7.96520969449014   11.49286129182604   22.47085440641063
C         8.78627252944074   12.52548435642572   24.17168452918724
H         8.47471430265442   12.84028924535352   25.16633355420931
H         9.08925903752483   13.40740641476693   23.61079706862863
H         9.65012523418448   11.87257764994811   24.27522580819982
C         6.49941931589662   12.82674688025939   23.21518655941794
H         5.63016232255220   12.32633733462778   22.80003777823514
H         6.83375169077055   13.56966965748056   22.49439693980502
H         6.22031948043248   13.34357817966947   24.13131906426540
C         8.50237074903302    7.09654729509556   25.08022296527782
H         9.16801563532894    7.10555355902824   24.21075077643291
C         9.36130085748066    7.08786897528843   26.34972049826685
H         9.99775726556868    7.96766680684106   26.40339566173171
H         9.99528368130702    6.20383603055655   26.36798828429434
H         8.72666373247560    7.07657257275631   27.23300258042083
C         7.66918354754687    5.81377093034544   25.02310724030347
H         7.13626132328914    5.65046404096312   25.95621062655009
H         8.32054302479894    4.95825267672586   24.85448350746522
H         6.94141973140595    5.86015682197109   24.21844975685769
C         6.85035124133953    9.00301446849815   21.53585229295851
C         6.40948163285110    7.88162166430412   22.20167576149693
H         7.10661597515598    7.07233635887320   22.37659192402824
C         5.08764797303787    7.78663431000324   22.61807409589375
H         4.74343817286709    6.90140268680166   23.13269388595228
C         4.22445177322653    8.83715898258075   22.37262354319862
H         3.19794528732003    8.77847692596887   22.70919925648289
C         4.64608860320824    9.95948903496438   21.68441234342007
H         3.95709695191410   10.76944866682859   21.48131295792970
C         5.96309709588143   10.07476983723855   21.21294999545260
C         8.58061741314556    8.54923820674909   18.03719124153691
H         7.73699820154724    7.93040645925987   17.69800337626550
H         9.27748537225955    7.91232287611520   18.57854389739119
H         9.08934372202623    8.95372580896150   17.15940608870183
C         4.99662702601772   10.02178527151370   17.66786525329870
H         5.14359305853622    8.95526289302255   17.49169487834623
H         4.29817608591043   10.42484348690799   16.93446399808448
H         4.59730017938266   10.15356057835637   18.67397684923446
C         6.99723884245598   10.78165273843575   15.79296181219234
H         7.91429430457991   11.32950750097288   15.58760925979638
H         6.18094896044866   11.21080250974502   15.21408066231259
H         7.14108976093547    9.74359047752815   15.50424776146993
C         6.11539235547805   12.62795383477539   17.76560109021137
H         5.81957759730158   12.78259802892751   18.80183069245090
H         5.28201261352973   12.85209132456538   17.10049407006959
H         6.95450318265697   13.28108808560842   17.53257512882903

