89
CSD_code = EFIFAD | q = 0 | S = 0 | Stoichiometry = C39H43ClN3PPdS | MND = 4
C         4.91180025418673    7.05829781635520   13.37896737627234
C         5.85204578481116    8.04366847652700   14.02012864727723
H         6.22174771190571    8.80534920970700   13.32671492087698
C         6.89002861381277    7.16816064823152   14.63911208242775
C         8.10465336156569    7.47891193151495   15.21180956294350
H         8.47200544679605    8.49461950026642   15.23629858156718
C         8.86950713055647    6.44992847559157   15.74848914506528
H         9.82568648283367    6.67475843828041   16.19633465694447
C         8.41692302321016    5.13889361787319   15.71247026128285
H         9.02289713793008    4.35778852829578   16.14766627596446
C         7.21376343648179    4.81438052783221   15.10986086321420
H         6.88556793249426    3.78658719178202   15.06914536254478
C         6.45065889973439    5.83168326010322   14.55026588426974
C         5.23544895283181    5.79268926476286   13.77174180845782
C         4.28448947265714    7.66709673738905   16.56219775616841
H         4.01247128484322    6.79511351992916   15.94061668341701
C         3.02192200718135    8.15368771175596   17.26982086610001
H         2.64692005426631    7.36616605899979   17.92167375930936
H         2.23569036174399    8.39942523262500   16.54993310912625
H         3.20958820676696    9.03559394481008   17.87969548735812
C         5.35782321585637    7.26729369261087   17.56913416393186
H         5.57571827437494    8.08010072476760   18.25950189560079
H         6.28097084110325    6.96121499506745   17.08530371606749
H         4.99016211223756    6.42498243541605   18.15318884020004
C         6.06247730561900   10.09813960216747   16.15159126195902
H         6.83924053746642    9.48954164378043   16.62343071663657
C         6.67896843968361   11.01450288298231   15.10002913727451
H         5.89306071117343   11.52280887151475   14.54190453484838
H         7.30558623289622   10.46479196510194   14.40070549780860
H         7.29652844795825   11.77025722759774   15.58239131961103
C         5.33517434799023   10.92328407854527   17.20744953294038
H         6.00084997887996   11.68655873708373   17.60739386275769
H         4.99615617822444   10.30657301215966   18.03645980660572
H         4.47174324505656   11.42009520579525   16.76637430217920
C         4.47192444144008    4.55783477598054   13.42821144049682
H         4.26573450169045    4.55703499492213   12.35395118443280
H         5.07118250618115    3.67217832538735   13.64984699467133
C         3.14735974817096    4.44076523661909   14.14718905944536
C         2.42740301704575    3.25147522678374   14.04829270038963
H         2.82035761379399    2.43077910306523   13.46617858402839
C         1.21480414855734    3.13902604341768   14.70229284868686
H         0.63964305661593    2.22610149437861   14.64009801893819
C         0.75723450735142    4.21881356403088   15.44443501007699
H        -0.18146590034331    4.17645188965427   15.97323811954406
C         1.53503879257699    5.36148154080305   15.48794556741342
H         1.21475573936692    6.22967051684900   16.05335490547290
C         3.77069115869807    7.44489033084282   12.59070510381687
C         2.56338513140297    7.50771218190952   10.56689847315286
C         2.16707399076622    6.41018852225701    9.78427898234906
C         1.04061376881002    6.50976008780281    8.98764048023740
H         0.72493383705439    5.65598141694217    8.40429986862153
C         0.32402479134110    7.69188575835964    8.92174096309002
H        -0.55444082229556    7.76056588787348    8.29770801313245
C         0.74886228988424    8.78621408302776    9.64893395217627
H         0.20943436797655    9.72035642312775    9.57328847507658
C         1.85594787350572    8.71733527361810   10.48621311515111
C         2.94750875221913    5.13168526263793    9.85458923626219
H         4.01368517778926    5.34895231831923    9.88186076665468
H         2.72894410929665    4.49788408662968    8.99791213224847
H         2.69201407017200    4.58486638902714   10.76430358159985
C         2.25961114455104    9.93977549965953   11.26091915424659
H         2.02377833961353   10.83870730861808   10.69311768090958
H         3.32986139057174    9.93549514933072   11.47766272170187
H         1.69682781031857    9.99516295745315   12.21141360489566
C         1.01974424442536    6.93714969410050   12.89896298690893
C        -1.19599801137414    6.33890776154952   11.85675362509493
C        -1.47634426182148    5.04999499888797   11.39253719166286
C        -2.71736094565733    4.81833168515435   10.82174510879067
H        -2.95479502193264    3.82978334792176   10.45689684763325
C        -3.64849482893183    5.83713787453511   10.71647607283681
H        -4.61164102168702    5.63967669128613   10.26995108781821
C        -3.35127146803921    7.10664612040110   11.18051596730201
H        -4.08341166037438    7.89594030087369   11.09540769950578
C        -2.12326103495877    7.38643468546885   11.75940496519572
C        -0.44609030321779    3.96995669021282   11.49781090891068
H         0.33299649371988    4.13207972284166   10.75325266413691
H        -0.89243757005447    2.99375470933568   11.32594153196872
H         0.02625707447567    3.97951708092931   12.47951415921541
C        -1.77352767304087    8.74591779845263   12.26025584420639
H        -0.89426795360369    9.12227073974133   11.73611554979886
H        -1.51784975555661    8.71196776386479   13.32056096005508
H        -2.59844296295139    9.43830191189095   12.11742690916478
Cl        0.36045728092283    8.70210708488466   15.03708685073358
N         2.69876536698461    5.47877702978480   14.84734482419591
N         3.69990733513077    7.31807620546863   11.34421441728978
N         0.01255465277599    6.60006707103605   12.41662387248137
P         4.85104124459432    8.94530783710897   15.32502241256487
Pd        2.30652267983864    8.05132658459649   13.79799067659019
S         3.44924332132920   10.03789179316628   14.49756444809302

