85
CSD_code = EFIHEJ | q = 0 | S = 0 | Stoichiometry = C36H44N2PdSi2 | MND = 4
Pd        5.03993741365480    5.73754902853529    3.57980736053163
Si        4.55997933804381    7.40219699225684    5.12957272777408
N         3.43666329407086    3.88362313601304    5.47951313185575
C         5.33738732089389    9.15006694390877    5.37824933006522
H         6.39595280338093    9.14512436043369    5.13953959086593
H         4.85384373380750    9.88337156166090    4.74387508370584
H         5.23021036587422    9.46903983194880    6.41009623816302
C         2.66706108241998    7.63883964861797    4.88874038209573
C         1.91446578813935    8.57555121118011    5.58453228493711
H         2.40381318556843    9.22416237939834    6.29697235692021
C         0.55235249714534    8.70053784349799    5.37102572378545
H        -0.01770580607245    9.43490800283116    5.92321807122748
C        -0.08197304566376    7.88878259030371    4.44631270666020
H        -1.14514869528803    7.98516661207281    4.27728704924953
C         0.65473750530621    6.95849315360318    3.73072330448987
H         0.16418489531232    6.33093830789237    2.99851574799414
C         2.01467504669991    6.84009947370188    3.95318128761201
H         2.59621370031415    6.10619972919632    3.37801493888016
C         4.84025764127007    6.57278369504262    6.84835604884632
C         3.98396979458089    6.75108816617217    7.92666033303646
H         3.12426159688659    7.39757800430165    7.81824711362980
C         4.21014379237872    6.11159727942204    9.13431656298330
H         3.52700217992799    6.25667379931540    9.96046124353014
C         5.30960245980873    5.28329009460653    9.28454183115250
H         5.48634261384853    4.78034362587425   10.22513842986237
C         6.18197545484137    5.10374941241771    8.22295684255452
H         7.04451925939785    4.46152829048462    8.33753383350508
C         5.94257891804036    5.74165443648438    7.01977000905192
H         6.62631514984964    5.59419802617122    6.18739834548889
C         4.37689616199746    4.30384084722488    4.94222480341842
C         2.37613518135720    3.35190512323216    6.23934660285122
C         1.44769464613771    4.50543719092345    6.62615495884050
H         0.61863916463173    4.12690434408142    7.21835112346508
H         1.99373451646661    5.24377972723116    7.20878775745413
H         1.05462668825361    4.99602485309709    5.73835129187043
C         1.64165957039405    2.32457371670593    5.37330685595905
H         0.81067908204958    1.89957823182917    5.92999044523760
H         1.25472945455363    2.79879891243225    4.47389989230098
H         2.31444785670712    1.52117017292249    5.07986086552963
C         2.97481212561184    2.69704915590374    7.48811433229074
H         2.17950601449149    2.28675316674452    8.10479043461099
H         3.65373879581917    1.89332864270279    7.21040424152200
H         3.52811837484539    3.43318165220407    8.06792304288345
Si        5.51593079422913    7.40200176029788    2.02848932618740
N         6.63973958549607    3.88327686936451    1.67852055645328
C         4.73864486055041    9.14991812981797    1.77961943597883
H         3.68008061492194    9.14502271559193    2.01832683171710
H         5.22218823552581    9.88329177060606    2.41391577061466
H         4.84582019991982    9.46881379998902    0.74774519331720
C         7.40886740442840    7.63873636881526    2.26906777972687
C         8.16154842224482    8.57536805325947    1.57325559164396
H         7.67226439874659    9.22401830790225    0.86081087111060
C         9.52368022051399    8.70022885594751    1.78673756596119
H        10.09379869199419    9.43454993413605    1.23453319417754
C        10.15793444765543    7.88841338568815    2.71144663066790
H        11.22113174153499    7.98470743749988    2.88043786191768
C         9.42112084409561    6.95819292502794    3.42705942160890
H         9.91166151942604    6.33060583696238    4.15925036314966
C         8.06113302372900    6.83992931119441    3.20462611336908
H         7.47928779681289    6.10616751694490    3.77972748464617
C         5.23562893189632    6.57256501808975    0.30972890170617
C         6.09164810554979    6.75106894091397   -0.76876353754282
H         6.95123725914933    7.39774981398637   -0.66054107875864
C         5.86536590674116    6.11151789465939   -1.97636858702997
H         6.54832015476234    6.25670939647156   -2.80264939295045
C         4.76605041160430    5.28297556945626   -2.12635543058890
H         4.58924395487007    4.77995638457575   -3.06690160952235
C         3.89391895369449    5.10327933113203   -1.06459359529760
H         3.03148212410341    4.46088398148059   -1.17899413516617
C         4.13344177828050    5.74122280836914    0.13855190677171
H         3.44991349222116    5.59364393514575    0.97108761831456
C         5.69988083687450    4.30423462678244    2.21584022893573
C         7.70003654249399    3.35183001414141    0.91823840232605
C         8.62821759152715    4.50551326311512    0.53124591219262
H         9.45702846091850    4.12712629200376   -0.06137763868821
H         8.08189342812597    5.24394569844703   -0.05100956081784
H         9.02165866732835    4.99596790464545    1.41896014658029
C         8.43487336104299    2.32450314866417    1.78396544522379
H         9.26554041611321    1.89947695100044    1.22684930581365
H         8.82228615542973    2.79872958793780    2.68316610676843
H         7.76219009542098    1.52114411113250    2.07777457376374
C         7.10080334548516    2.69710468800860   -0.33031155446292
H         7.89583903495393    2.28681165512576   -0.94732583604994
H         6.42194584672312    1.89341883812298   -0.05233086931321
H         6.54728542474390    3.43331579281317   -0.90982027281801

