46
CSD_code = EFIHUW | q = 0 | S = 0 | Stoichiometry = C15H26Cl2N2Pd | MND = 4
Pd       10.42993542893767    0.17035119901837   10.71783549667999
Cl        9.97744237875103   -0.72525923114830    8.71338610761631
Cl       12.23866678741958    1.10127841149115    9.74510260125644
N        10.98211820701438    0.67448633754370   12.73114669623821
N         8.30939882982532    0.22693698256511   11.55646432042330
C        12.44790902679210    0.63981678022874   12.84607169726200
C        12.99171655308723   -0.74030815827065   12.48281632412940
C        12.38308399348507   -1.81033838065836   13.38051204769854
C        10.86555941406769   -1.69187575215491   13.29493931650051
C        10.43836489434739   -0.27968385356613   13.71184268834435
C         8.92066191471529   -0.16550088514127   13.92812726499978
C         8.05425411606359   -0.58599237593326   12.73993270190659
C         7.44854847471326   -0.16976305536498   10.43091599113874
C         5.98017408160297    0.22159538747660   10.58227471922780
C         5.89606442935191    1.73442449945637   10.73465803248343
C         6.72806965111723    2.15102368378521   11.94157755983626
C         8.18894779608512    1.67833464431192   11.81516849417819
C         8.97470858870262    2.11870025632054   13.06866526388390
C        10.49812510142835    2.03993875254966   12.92724173376155
C         8.58192298086874    1.27806207263153   14.28106073656775
H        12.74133490174427    0.90078274679939   13.87570640477739
H        12.86422418561075    1.37928457359624   12.15826936163777
H        14.07833376916098   -0.72834129209560   12.56803109146749
H        12.73277432341688   -0.95491057664705   11.43363146910147
H        12.70847696954785   -1.66719188306141   14.41473822974312
H        12.70468571518788   -2.80189917891734   13.06062162947839
H        10.37770431198228   -2.43066970540458   13.93323881528949
H        10.56044371257050   -1.86887203673609   12.24695572815583
H        10.89841075485143   -0.05764611694336   14.69269239920095
H         8.66938703782572   -0.82592345126326   14.76609137260291
H         7.00405967981555   -0.51358291157620   13.05879699756631
H         8.24564017021852   -1.63019244279923   12.47715196046190
H         7.55242057712300   -1.24909270584911   10.29364331031439
H         7.83770398225221    0.31531676068257    9.52866800474433
H         5.52109870522995   -0.26973245798326   11.44279709239534
H         5.44367900768318   -0.10484107025212    9.69121551752124
H         4.86155202942694    2.05710302185718   10.86589160451147
H         6.28681109213690    2.21185793257078    9.83353135325572
H         6.27090112779229    1.73741477366305   12.84168254208006
H         6.72582735643379    3.23816580803059   12.04024792219135
H         8.62444671725148    2.18566267135964   10.93136973412000
H         8.72724063098167    3.17055250065679   13.24872864438989
H        10.94113344187142    2.47017853783544   13.84181566116030
H        10.83794073276201    2.63810439935950   12.07202060763960
H         9.14461187738408    1.60350010077131   15.15864827960008
H         7.52248454136197    1.37964468720540   14.51597447246056

