104
CSD_code = EFIJEJ | q = 0 | S = 0 | Stoichiometry = C27H63BrCuO9P3 | MND = 4
C         2.42647120684538    1.91003508804443    0.44723283485385
H         2.46232136935661    2.92555730413721    0.03759082087651
C         1.55254959054742    1.03740378644241   -0.44356623073746
H         0.53531933223144    1.42022843324253   -0.45685614446802
H         1.53643714497202    0.01894016372502   -0.06251052238912
H         1.94800179359848    1.03453471438312   -1.45539454780292
C         3.84314837271078    1.36953823655376    0.56714335637501
H         4.45573394909363    2.05233310517055    1.14815706295779
H         4.28224479519280    1.27862070689326   -0.42114778776193
H         3.83034248012026    0.39557257900496    1.05051012528268
C        -1.32210190295425    3.95846563690672    1.25562918171785
H        -0.85638418655866    4.95157235558659    1.20636900463495
C        -2.04182590062695    3.66814340743235   -0.05561575884206
H        -1.34430423998916    3.72408298410250   -0.88614769229881
H        -2.83358331982508    4.39559909766601   -0.21040609124419
H        -2.47340163099463    2.66991163948864   -0.02720036143775
C        -2.28247469599309    3.92013308825837    2.43774499810159
H        -1.73946840334525    4.09018459444871    3.36439884285029
H        -2.77315504596004    2.94972710158617    2.48603166234798
H        -3.03679782721140    4.69435758002465    2.32473815852568
C         0.13988961932145    1.22577094789293    3.87638912710359
H        -0.22975459007829    0.90624246113550    2.89509689937726
C         1.26896591345329    0.30681621487796    4.32250841756542
H         2.08840870056300    0.35564483178575    3.61203947483224
H         0.90761521193934   -0.71673395916580    4.38462921984012
H         1.63207975650778    0.61664278609509    5.29932131020025
C        -1.00308644693338    1.21633832261904    4.88412264629453
H        -1.78638182896168    1.90727573009333    4.58531897078405
H        -0.63726729904783    1.50596917227822    5.86664168286812
H        -1.42231942561919    0.21548820307771    4.94830565304061
C         0.34488530702051    5.74895815697965    5.00195980585636
H         0.09046256459834    5.41848561118740    3.98106442300783
C         0.05183499895429    7.23951331369346    5.10947621803844
H         0.65596017833258    7.78213670849539    4.38513770762999
H         0.28926635717251    7.59515692551827    6.11012883017876
H        -0.99806957104218    7.42732360163876    4.90119845092454
C        -0.44895066617919    4.93391526985276    6.01423463301599
H        -0.22487172404822    3.87971665723904    5.87987927219446
H        -1.51496483904925    5.09716388353584    5.87854463664794
H        -0.16817127800891    5.22803564490099    7.02296059375824
C         3.95484115840420    7.53569813133458    5.85397315677712
H         3.62216268657267    6.74723787659372    6.53918473373371
C         3.43536612032920    8.88859293285836    6.32409995741763
H         2.35030135945881    8.88035724165901    6.38546399834168
H         3.73590840991946    9.66100905919464    5.62027072459085
H         3.84332730501985    9.12131805753451    7.30425376961430
C         5.47360084725360    7.52485934052274    5.75075018503296
H         5.81026852135935    6.55816317734228    5.38876321947841
H         5.91579899454478    7.72007910462291    6.72455689836516
H         5.79899370578226    8.28878077801617    5.04859127023794
C        -1.08462090210050    8.43421242381267    1.01059145973769
H        -0.41984680410781    8.90635521303843    0.27803061327667
C        -2.29608403066498    7.84938982586998    0.29673696085470
H        -1.96894318512768    7.12128502066037   -0.44008139213878
H        -2.85243691198407    8.63961466913986   -0.20089482618793
H        -2.94485630468337    7.35402662780415    1.01597285862255
C        -1.48822077249239    9.45091065782718    2.07033781274473
H        -0.60644759309628    9.84906984644620    2.56558509422854
H        -2.12154126152601    8.97641400050165    2.81634055485019
H        -2.03345193063710   10.27021085197340    1.60930769115278
C         1.46352618168887    6.20044817320638   -1.47673105504068
H         2.47232126863768    6.14123101838718   -1.05640290746538
C         1.10185714750245    4.86365900531546   -2.10866651430416
H         1.06624604214713    4.08885298820952   -1.34596708165788
H         1.85364669732830    4.59222745682969   -2.84385766453036
H         0.12968115284397    4.92727734104904   -2.59340050808865
C         1.41788958999423    7.33873104039361   -2.48652215068699
H         1.67876982513103    8.27202375664894   -1.99523007346114
H         0.41753572407375    7.42824423703890   -2.90479010024553
H         2.12762113459278    7.14781592804652   -3.28615565375563
C         3.02170472231962    8.55297380599871    1.47244099760470
H         3.33527341884171    7.76765625525794    2.17074169711827
C         2.63483189009197    9.78905091828040    2.27345406125309
H         1.85093943259735    9.54113432435835    2.98606577294699
H         2.27463461833660   10.56992450705022    1.60677569165727
H         3.49855271530112   10.15480629802245    2.82060022588910
C         4.14647477939382    8.83291227834714    0.48534243380994
H         4.42953165021977    7.91701820725901   -0.02742231885030
H         5.01436877900368    9.21148202655565    1.01656648979314
H         3.82412283515364    9.56869153768704   -0.24796018255110
C         4.10691400500351    3.53345665037710    4.45700699770898
H         3.36148269478517    3.24057800410491    3.70300957336730
C         3.79867316052261    2.80870112848150    5.75976847774647
H         2.78702744450290    3.04790603992458    6.07802467667051
H         4.49535420470371    3.12950016651550    6.53111711983079
H         3.89076547543804    1.73542102204678    5.61810552568336
C         5.50597039342693    3.22608580646020    3.93951820063149
H         5.69582155506248    3.77378386043025    3.01928456616419
H         5.60313004256727    2.16176423849915    3.74399906588465
H         6.24576973951053    3.52260850236968    4.67918448215729
O         1.85746524408752    1.94723407508252    1.76445961828428
O        -0.30354847287683    2.97487092860169    1.40235800109833
O         0.62824903573160    2.57144876792248    3.75746082614675
O         1.71676662689887    5.47791862801048    5.23956906012194
O         3.39415948346738    7.28360818074703    4.55878866026023
O         4.02123184750258    4.93983679387517    4.69088399512864
O        -0.36947357863465    7.37806029946323    1.66181453357109
O         0.51948608189505    6.48151536951995   -0.43318585310794
O         1.88569954964606    8.10808461103550    0.72631752484048
P         1.03153750446070    3.20073806539620    2.33025198649609
P         2.83824734724593    5.84726956664503    4.09685851882552
P         1.01414904439112    6.78501718217782    1.07819288342081
Cu        2.27380609298436    5.08196423080124    1.97031528817311
Br        4.25056264014967    5.03797985398075    0.79012148604876

