52
CSD_code = EFIKUB | q = 1 | S = 0 | Stoichiometry = C22H22ClN4O2Ru(1+) | MND = 9
Ru        7.30776962772878    9.23032592593241    9.23791461350585
Cl        5.14128592187098    8.41122583840490    9.53773149501874
O         9.34659217932319    6.49314614924474   14.57855896620247
O         9.78922210974052    6.75034250390634   12.40925013597846
H        10.38706829443995    5.99921188822811   12.56628106503956
N         6.36422477696120   10.82164443056561    8.52980070416766
N         5.77481064904513   11.60133383267241    9.45820924395752
N         6.85583345163414   10.23611817936892   10.91024594481214
N         7.95704883721893    8.73593271012400   12.23087841534378
C         5.99254089250025   11.27477125292516    7.34707256481086
H         6.31393700462333   10.81087687506759    6.43474496800318
C         5.15134422014112   12.38597543092622    7.50933869792285
H         4.69814649268819   12.96663616623008    6.73333200412960
C         5.03154647018516   12.56868392602850    8.86276659514036
H         4.47932065285631   13.29893333758919    9.41641178725043
C         6.00796795727646   11.26216569111020   10.77758807539535
C         5.40611085769462   11.92082042387953   11.86149966529010
H         4.73397707272687   12.74298801485724   11.68334381958779
C         5.66731896864497   11.47601364772937   13.12863348313352
H         5.20936646384514   11.93917651662211   13.98812837423790
C         6.53494375767794   10.37793592139406   13.30829463953166
C         7.12498695729717    9.77678962451384   12.15984852115484
C         6.84195464340752    9.81457903322017   14.56216610127772
H         6.40737029550064   10.23799154120805   15.45491380856942
C         7.68311235780385    8.73577709622248   14.61762333392470
H         7.94890800876152    8.25529777642039   15.54576722172246
C         8.22680229044604    8.23396624902825   13.41815961656424
C         9.16469408025066    7.07081829518875   13.54247256645203
C         7.83207194656051    7.03768570243724    8.37954745432676
C         7.93375490025665    8.02642894391653    7.37483578920926
H         7.42489823167404    7.87301762022181    6.42862190660294
C         8.80095312210288    9.13111208264280    7.52667594047819
H         8.93599791892795    9.80938240427086    6.69083289668016
C         9.58178832188866    9.29595745180645    8.69174296307496
C         9.40783863060794    8.34886465032041    9.72536761304471
H        10.01026103234076    8.41630438441623   10.62265166400776
C         8.55147402575308    7.24274417965749    9.57584133416843
H         8.51480814703212    6.49958764179699   10.36136237071360
C         6.98704337155502    5.82508739069444    8.18021532773122
H         6.97061836458450    5.52853082039406    7.13390256169325
H         5.95949813547999    6.04356386049988    8.48022829703306
H         7.34247271438336    4.99748055032314    8.78916879285394
C        10.55199937277531   10.44386642044422    8.84272783374133
H        11.14357349877584   10.26891290495246    9.74770367808135
C         9.77183505400498   11.75080731464469    9.02740659142071
H         9.09654522022302   11.66859948019169    9.88282522710960
H         9.18917048757227   11.98170609698801    8.13662952225277
H        10.45770584173837   12.57406036927678    9.20838789259303
C        11.50918493019898   10.53963907723360    7.65281058258465
H        12.00263043496539    9.58624168288251    7.48032308935528
H        12.27114536430235   11.28672732057607    7.85636976606111
H        10.98812563999895   10.83141337080850    6.74464447706315

