55
CSD_code = EFILIQ | q = 0 | S = 0 | Stoichiometry = C21H29ClIrN3 | MND = 6
Ir        6.49041841785007   11.52096395136838    3.57837315370633
Cl        5.91886296222918    9.21356414538677    3.50520123645319
N         6.66337546158539   10.79946109011256    0.60705544595795
N         4.96347126246647   12.05403653496628    1.00501564877256
N         3.31502267421163   11.20699998734811    3.20455696619223
H         4.09427595310901   10.60352904351224    2.97497576160394
H         2.89768835918932   11.03425714463409    4.10264470018088
C         6.05099440231352   11.49401613601544    1.59235574623087
C         5.98317154210707   10.93749369219615   -0.57115916483626
H         6.30403400285118   10.46582515230032   -1.47700767294733
C         4.91480594714913   11.72860733041430   -0.32570866474726
H         4.12817805738463   12.06915667234866   -0.96639689469648
C         7.83328203946698    9.96866162387868    0.76626435536001
H         7.99055546656357    9.43377703018697   -0.17327306569801
H         7.62834303052310    9.24353115584923    1.55910472079906
C         9.07669615340602   10.77673507622839    1.13381478013195
H         9.91257403882311   10.08477485543544    1.24704534650208
H         8.89811085062026   11.25404772225292    2.09899247837972
C         9.42026341370273   11.83350857756831    0.08753995653984
H         9.59869510527147   11.34858822217669   -0.87574172184738
H         8.57346268358910   12.51314996235372   -0.03362369693334
C        10.65283598568033   12.63567332463157    0.48532486461093
H        10.48323647096211   13.15069070167422    1.42810852087509
H        10.88848806147916   13.37839490066575   -0.27321209567950
H        11.51310562059685   11.98057528978929    0.60288763227484
C         4.01776121916560   12.90939666141605    1.62470341614707
C         3.26646816438797   12.48328082162418    2.73529957697227
C         2.37811444084247   13.40870913562435    3.29976567813690
H         1.79890872789658   13.10366705598072    4.15954032337060
C         2.22491208374172   14.67497676548664    2.78004018720291
H         1.53158597367767   15.36166852952666    3.24250477264003
C         2.95231851527412   15.07038193024045    1.66754910893992
H         2.83132656687153   16.05887092590605    1.25364810533690
C         3.84530913811425   14.18205551942212    1.09956025245259
H         4.43743136175982   14.47504360328994    0.24408058100567
C         6.13015091780108   11.53419026532344    5.69617730545758
H         5.51069219049092   10.66800118035962    5.91966045953384
C         7.48059478964644   11.32267322000559    5.50114572431260
H         7.84343918288579   10.29920000517393    5.55447812787624
C         8.53014230926956   12.38424161285292    5.74228315272309
H         9.44644494595075   11.90613038541136    6.09410848801923
H         8.18693447005005   13.04669058756853    6.53849896877613
C         8.84836610758249   13.19744167896391    4.47319350702461
H         9.15102382951061   14.21476328278680    4.74566842309617
H         9.69826930479390   12.73810230779887    3.96285622023296
C         7.69226236342861   13.26092479922252    3.49775556466848
H         8.01052686828118   13.53024145935068    2.49087526468119
C         6.38024108545758   13.62878611790495    3.85716153083918
H         5.78716629008739   14.11598165194976    3.08828796446949
C         5.99439035387592   14.03913708941665    5.26405250211769
H         5.19100541646527   14.77610232397287    5.20818302458864
H         6.84620415640583   14.52547948946739    5.74226545015428
C         5.51222976076082   12.84758853154335    6.11182198393607
H         5.72181818044554   13.02944362586132    7.17170376860001
H         4.42851332194431   12.76061011325311    6.00929222950066

