72
CSD_code = EFINAL | q = 1 | S = 0 | Stoichiometry = C28H40ClP2Pd(1+) | MND = 4
Pd        2.14908149132911    5.05674664892082   11.74318795841272
Cl        1.47479026010711    5.35030472052298    9.62817767032868
P         4.28919783442328    4.65790209238358   11.17100275741957
P         0.10220110547335    5.41462379335261   12.60843024860531
C         4.98334672614208    4.23568180634601   12.79599786142780
C         6.26368797790976    3.77338095646706   13.01629042669087
H         6.94113958850592    3.60759069933215   12.19274310097632
C         6.67935413281634    3.52104598380388   14.31778510463343
H         7.68035509955854    3.16270799652980   14.50294878821032
C         5.82104913740151    3.73763780608132   15.37974350692064
H         6.18298715445541    3.54383995386432   16.37715838016466
C         4.51828565613517    4.18666073709474   15.18897419988189
C         4.07614323914639    4.42334072695327   13.87092243976457
C         2.73034378832691    4.80364736124513   13.56945917774128
C         1.82891504776729    4.99002498999688   14.66464495760935
C         2.23404635033714    4.85747427774795   16.00891400351979
C         3.62598719593342    4.41430396059865   16.38305540694957
C         1.31028859048762    5.14048403500548   17.00981113548210
H         1.59563482197134    5.05227895228979   18.04624903646146
C         0.02068020005292    5.54392888566685   16.71745000738118
H        -0.66624263879328    5.76435335180729   17.52010118223390
C        -0.39790924696306    5.65537251567907   15.39733188868537
H        -1.40785876433725    5.96529728220832   15.17684719555455
C         0.48972079449044    5.36530330441313   14.38271262921868
C         3.51059938482719    3.09440335659027   17.17465785627818
H         3.08509958009884    2.31670641684486   16.54344879412769
H         2.87107211703436    3.22146265307786   18.04255437936557
H         4.48506011722124    2.76378352021777   17.51954186046573
C         4.27378532846197    5.50575273800163   17.26137963420026
H         5.28100956008773    5.22018868086731   17.54838633826663
H         3.69757745302019    5.66583640482798   18.16703610980219
H         4.32426819646203    6.44454402857985   16.71325696355996
C         5.14258139088114    6.21342655275953   10.63816853217720
H         4.79396543706700    6.38298170830425    9.61014658721614
C         4.59627161291106    7.32863865786592   11.53296230524833
H         3.49305261548361    7.33523393639617   11.50804135228246
H         4.94897755593415    8.29913747832746   11.19049670890297
H         4.92466450840345    7.18942915131205   12.56465198118203
C         6.66361706819065    6.14108717536351   10.66416920940654
H         7.02985766545997    6.04509361363068   11.68448500720212
H         7.07945510416297    7.05361804390709   10.24171078044596
H         7.03041963968575    5.30191661491643   10.07643382159241
C         4.73737036848824    3.24978244298350   10.06427075689194
H         5.76564746198127    2.93095889253418   10.27215004003525
C         3.75662836041113    2.14041825529165   10.45198591690262
H         3.85308242107052    1.88684109597957   11.51077916549504
H         3.93446323339332    1.24231236895646    9.86499430288749
H         2.73071025460055    2.47703401212404   10.25987161932561
C         4.58696326647845    3.64361116966800    8.59885995456789
H         3.60258459981482    4.07560431604719    8.42090343131549
H         4.69020551884836    2.76403784048895    7.96684241454724
H         5.34471370698944    4.36496411167505    8.30035563219552
C        -0.78301570529176    7.01287903549000   12.34198565312636
H        -1.47766532014195    7.19131500718578   13.17135406406645
C         0.32905886241571    8.06464412257514   12.35487784310783
H         0.87705970112858    8.04132207689962   13.30033650411834
H        -0.07936800505827    9.06323470802221   12.21789030401591
H         1.02875626628013    7.86576459951591   11.53417392562711
C        -1.53034199196210    7.00403720645676   11.01288048821456
H        -0.86349559041478    6.70624199277892   10.20425984594852
H        -1.90537052732393    8.00136904087429   10.79278394665296
H        -2.37776933055685    6.32219644010252   11.03675714334656
C        -1.02120373613847    3.97661076004547   12.28894903445101
H        -1.33610295949453    4.09743194025556   11.24332907359221
C        -2.24402182700014    3.91591772959434   13.19473160557624
H        -1.95352328707934    3.72502031107287   14.22603072835896
H        -2.89610222074815    3.10625275170499   12.87325031212109
H        -2.81392157570924    4.84203756814669   13.15361322094449
C        -0.15133084630609    2.72197121749991   12.39867342929149
H         0.73450231215240    2.81090384556306   11.74672252664105
H        -0.71173121425920    1.84175664381515   12.09086948310499
H         0.18165792537767    2.57355492654720   13.42765034749389

