71
CSD_code = EFINUC | q = 0 | S = 0 | Stoichiometry = C32H29N5O3RuS | MND = 6
Ru        8.99652108201859    3.60962666986998    3.26062017214481
S         8.47284233704276    3.41524220863685    1.07752467902796
O         9.01020080193101    1.53656548454018    3.39964462511739
O         6.96765213816370    3.67375415328326    3.70428423178395
O         9.26158590530129    4.31140192801508    0.24092847112458
N        10.89056104793189    3.69826637133205    2.76202237445775
N         9.11720090356099    5.55149830529640    3.01713037780771
N        11.26877067403352    1.34503138239378    2.79037167555806
N         6.81487509286845    6.00079024087769    3.43943800043195
N         9.42920935792818    3.74881221930400    5.22762092418445
C        11.34003919343361    4.93700249236294    2.48956621501781
C        10.32737374147306    5.99192393290113    2.62710512958415
C        12.64748991704991    5.14978878034133    2.08096205782447
C        10.54582303306816    7.33237666778673    2.34968416489256
C        13.49074284016932    4.05167181972356    1.93550447605322
C         9.48016990408026    8.22130431789787    2.46013676257758
C        13.01088663307224    2.78976588634005    2.18315450460627
C         8.24278242056365    7.75513013467770    2.82805457361907
C        11.67102761197258    2.61362597488711    2.59404208989179
C         8.06010340132246    6.38144259010422    3.10137051356754
C        10.07297789164505    0.90584735046436    3.13965577992624
C         6.36774510869837    4.78510949144578    3.69755121466996
C         9.99562276564307   -0.58131886419992    3.22938983231301
C         4.91189604072248    4.75047025542721    4.02162119746357
C        11.07873748993969   -1.38412213159923    2.88498746760797
C         4.12725344456477    5.89732980249343    3.94876373118618
C        10.97653360093241   -2.75959254889391    2.96995851742023
C         2.77941730092265    5.83494171984266    4.24714517882897
C         9.79598319874519   -3.34629957425676    3.39881921596674
C         2.20263947485128    4.63100214822966    4.62090013295631
C         8.71472263774135   -2.55187742794835    3.74426361838554
C         2.97938588905059    3.48624422803281    4.69671259774082
C         8.81269441081205   -1.17596267524463    3.65992888522666
C         4.32752535639624    3.54431838376215    4.39832537375070
C         8.62282279277528    1.75485636468070    0.33606824074588
C         6.72696764212361    3.68794255945408    0.62398391635819
C         8.75591258402098    4.57907391704788    6.03098848454114
C         8.92412367101033    4.60607357811211    7.40192503468800
C         9.83278783508060    3.74643250780855    8.00921396547327
C        10.54096199568414    2.89513753698762    7.16375946330579
C        10.31624728887289    2.92775805506579    5.80320986459605
C        10.05015468751460    3.72856885484543    9.48591149843801
H        13.00463028485415    6.14301468646841    1.86827423357578
H        14.51267823428455    4.19605361774023    1.61714160135814
H        13.62034052084163    1.90936414721108    2.06460124350244
H        11.98694156550721   -0.90667909073490    2.55419799263434
H        11.81883474200976   -3.38086119899364    2.70096730846349
H         9.71909179914548   -4.42220311386137    3.46407386427627
H         7.79453130745710   -3.00845544092841    4.07999507791072
H         7.98106125150542   -0.54078847873195    3.92771722093943
H        11.51636526716945    7.68100036671359    2.04020221494862
H         9.62860764207284    9.26918216456144    2.24459800274229
H         7.38505937789542    8.40205881895689    2.90798038485213
H         4.59655700063565    6.82270585931872    3.65609937916376
H         2.17198718184094    6.72680393193229    4.18861760116903
H         1.14827894414037    4.58532506398564    4.85325133702580
H         2.53076445948331    2.54765933995738    4.98949877827538
H         4.94910958779224    2.66272346743821    4.45454251033370
H         8.04816261930974    5.25290629919860    5.56455637941057
H         8.34329336902181    5.29795676876860    7.99231502959768
H        11.26674979230926    2.20522520327687    7.56614333781711
H        10.87114137464329    2.26487949292324    5.15124955997879
H         7.97515224959849    1.08310284075015    0.88787039178613
H         8.34672407745802    1.81394474049110   -0.71012938633868
H         9.65771961320014    1.44115665291285    0.43246137981907
H         6.46659159684805    4.70351342844008    0.90599356443273
H         6.61856930020072    3.55807589228037   -0.44634846685631
H         6.12458561468638    2.97892335620976    1.18057073816931
H         9.80728955298822    2.74599507378863    9.88800112828971
H        11.09553464120462    3.92940967456955    9.71561126563279
H         9.43167588716343    4.47225134324419    9.98059709622741

