78
CSD_code = EFITET | q = 0 | S = 0 | Stoichiometry = C40H30N3O2P2Rh | MND = 4
Rh        0.02839384162438   14.09451065658399    3.41069732659456
C         2.90209015624863   14.14619296408886    2.90729868999743
C         4.11344507455977   14.18760524141661    2.20227635074908
N         5.05434527408232   14.20776886775008    1.53663938400261
C        -0.86486317448448   12.81814553201160    2.41732876999813
O        -1.36882197600153   12.00513614949481    1.78920879964096
C        -0.97457234557784   15.50841009745957    2.76905784235661
O        -1.57049780634589   16.42561908390343    2.43337204147501
N         1.15834616864927   15.41863006310457    4.53378899757042
C         0.53498891579622   16.36880717060030    5.33460488005025
C        -0.65444961690470   16.00128564666277    5.97195935214396
H        -1.03944731371563   14.99458843171906    5.80955450874582
C        -1.31849038967415   16.89236832417759    6.78878101373784
H        -2.23837452304283   16.59416902205935    7.27032905929726
C        -0.80974904565190   18.16592110912604    6.99252311654028
H        -1.32973044321694   18.86345104064744    7.63130863769662
C         0.36603848862900   18.53992230561428    6.36400918448229
H         0.76538484398632   19.53336038992192    6.50881385579990
C         1.03354882636883   17.65368537192332    5.54154860981620
H         1.94403045121470   17.95115847563935    5.03660765307105
N         1.17767301633894   12.63087125269625    4.32183158873623
C         0.64045943543411   11.58134443713974    5.05709728204356
C        -0.70114911012662   11.65019321423435    5.44670006961166
H        -1.28216917489874   12.53116992434207    5.16945457365390
C        -1.27939116408764   10.62701951137154    6.16903199964726
H        -2.31840511440173   10.69723345318958    6.45652820601418
C        -0.53354755873298    9.51587938625165    6.52980151418162
H        -0.98647608448934    8.71615581717659    7.09550405169756
C         0.79885654293945    9.44184201793261    6.15966901663400
H         1.39103353229157    8.58138021896769    6.43605788698309
C         1.38201800143130   10.46072364746375    5.43299852588227
H         2.42345026970487   10.39667410384344    5.14120012409588
P         2.57291741692879   15.64842968784776    3.78800443928325
C         3.92115862411566   16.08584603100384    4.92455576584833
C         5.18005053138113   16.35115876222724    4.39239339614973
H         5.31577401625030   16.36012190116722    3.31916274453731
C         6.24572679535697   16.58678214745477    5.24005182876830
H         7.22214723372174   16.79529033330142    4.82857507529468
C         6.06086041049843   16.55214930895331    6.61342179536103
H         6.89473631273631   16.74026945519085    7.27341707989077
C         4.81174396422684   16.27068969905731    7.14202719323848
H         4.67090148905895   16.23779849574697    8.21222915574635
C         3.74091092894223   16.02904690963420    6.30150194621577
H         2.76365325469408   15.80586750335569    6.70611150241853
C         2.53177211789687   16.92149230032401    2.48755647647540
C         1.78054246635777   16.59299783445347    1.36359135111344
H         1.33269491512425   15.60239596851282    1.29790972531614
C         1.61958384751801   17.51200557983229    0.34488608591465
H         1.03893161708451   17.25487806615577   -0.52848405476001
C         2.20643556368156   18.76355558508104    0.44745203645894
H         2.08198757348926   19.48423839921234   -0.34699285467946
C         2.95298306518465   19.09322338952210    1.56676736101643
H         3.41024028539922   20.06877703561284    1.64383958366258
C         3.11532387949727   18.17722798264681    2.59081570684234
H         3.70442291741264   18.43478149763579    3.46136204967522
P         2.74587847514562   12.72080026777508    3.94467503964018
C         3.31736719003032   11.35962571922589    2.88688823312867
C         2.63118343897086   11.26048393887473    1.68134208467756
H         1.85012113504334   11.98183697313004    1.46255551038450
C         2.95175372821542   10.25995915969941    0.78483892256958
H         2.42374509988118   10.18397886692370   -0.15396449358310
C         3.95529464348381    9.35546209917908    1.09492093766939
H         4.21075336896816    8.57356818228758    0.39527031631158
C         4.63168218686156    9.44853001143234    2.30020722188602
H         5.41098334475195    8.73972423809835    2.53913039214045
C         4.31411053852898   10.44787893793310    3.20285075854882
H         4.84027056164552   10.51940628510714    4.14559479928262
C         3.83165412060903   12.79566421040338    5.40149678541354
C         5.20314032230945   12.93915878684641    5.20789127868869
H         5.60261057699392   12.95081990770216    4.20170801318918
C         6.03712091515953   13.07872078902248    6.30035731620635
H         7.10134715077743   13.18813356178038    6.15321475345332
C         5.50721300138819   13.08310352102402    7.58166270759875
H         6.16299044394317   13.18684828882413    8.43341278967244
C         4.14030946582913   12.96556953467097    7.77198648712800
H         3.72856968612030   12.98133976640649    8.77043522873191
C         3.29743700552880   12.83135678863679    6.68357330232169
H         2.22839637530964   12.74788336257738    6.82171331220962

