40
CSD_code = EFIXEW | q = 1 | S = 0 | Stoichiometry = C10H21N6NiO2(1+) | MND = 6
Ni        4.24245775204518   14.09238482191358    8.93524338008176
N         6.10148723938066   14.95806154072099    8.60741926380025
H         6.19424779646826   15.60014026075395    9.39347146975552
N         3.82714928399399   14.83680162751659    7.18328748186344
H         4.11984027801287   14.16986514342604    6.46840835610384
H         2.84074597822926   15.03480955782415    7.02428431964942
N         5.59692643522015   12.24540883406180    8.13355569766511
H         5.63615638038911   11.82185478792839    9.06195542772555
H         5.34929676475331   11.50895705897343    7.47917728644546
N         3.40411761203146   15.80332616966155   10.36338568757299
H         4.12075749734315   16.48093275515520   10.61737608444215
H         2.56674349847668   16.33669371394951   10.13647414871333
N         1.17755599774371   11.42836104972076    9.18892049038865
H         0.73561106553503   10.57144655749189    8.89375190536753
N         2.50816148321969   13.16611092863082    9.22584700840515
C         6.06782183329158   15.72835280747486    7.35527902209092
H         6.46969038909571   15.10590022456419    6.55361731316846
H         6.67613537374339   16.63709365660684    7.41593401730059
C         4.61437270490294   16.07123472488638    7.03649069525595
H         4.23699936265106   16.80633793364730    7.75156047178535
H         4.53113498673381   16.49306176344147    6.02741327895329
C         6.92572694007191   12.76802741712935    7.80969464413708
H         6.94310989922059   13.03656457436312    6.74942068937122
H         7.72643751897909   12.03682774075549    7.97793225189778
C         7.20524639075538   13.99412910196633    8.68642849408882
H         7.27627678125803   13.66392192062941    9.72447095646178
H         8.15454359162406   14.45534819348796    8.38957128826985
C         3.12986469725252   14.95987422369590   11.54058871719624
H         3.12581303370390   15.53728077595801   12.47435651277155
C         4.23387914637212   13.86321099016261   11.66981445825673
C         1.77454928772249   14.26140382302314   11.40445069396697
H         1.52599555128732   13.80076026395231   12.36157364894487
H         1.00350646486503   15.01002242488585   11.18807966775609
C         1.73184217391074   13.19858748279537   10.35394942254416
C         2.15468529781604   12.08676191138670    8.55158293039280
H         2.57533907340935   11.77216298585486    7.61615948964240
C         0.89764387024559   12.11307189068438   10.33172188483674
H         0.15495823370740   11.79342335909383   11.03186944990421
O         4.78194384926834   13.48337230127372   10.57528448986059
O         4.52022848526867   13.42281270055267   12.75859750316623

