43
CSD_code = EFMXPD | q = 0 | S = 0 | Stoichiometry = C20H5F12N3O2Pd | MND = 4
C        -8.64655959862164    2.89445511817259    2.93727940157041
C        -8.59068755260994    3.28849070030824    1.46919011559442
C        -8.34887700580791    1.41016128815033    3.10960391035713
C        -8.12948908714842    4.40874336548938    4.72035391507408
C        -7.04845946735927    4.37553828920615    5.83199598723591
C        -8.26274357061888    5.87476338865574    4.20221363542105
C       -11.45375380920674    2.60388168586096    2.30960207593211
C       -12.47896175634793    1.32115332141473    0.45684924366173
C       -14.19165742185787    0.90807764876065   -0.36748585247231
C       -13.04957517697479    1.60187304376352   -0.81518962041489
C       -13.22222137489214    0.12190490461259    0.28282711159864
C       -11.94254608340587    4.26129885410615    4.83082639358110
C       -11.60136272111281    2.51678372295029    6.32857118115137
C       -10.91329366228438    1.57948363891260    5.48329638219276
C        -9.90516758155724    1.41644269020383    6.46540344165332
C       -10.99543684620131    1.71342106408000    7.30545463969204
C       -12.36122994144685    6.10506418142077    3.26386889123405
C       -11.92350938602155    7.43885011233395    3.06968285225827
C       -12.85838905897155    6.27990523667164    5.62026888044414
C       -13.27188864385644    6.98422816009458    6.49864472091142
F        -7.39307858557938    3.55049939671697    0.97429410694121
F        -9.35077997918494    4.41052273194221    1.27561810390451
F        -9.16180799798772    2.35652983057478    0.68454223591837
F        -7.43106969876611    0.90995590375698    2.27771033957801
F        -9.48954907065752    0.69157339557563    2.88706175709500
F        -7.96969393043073    1.12789635877697    4.34750956216273
F        -5.96635804390507    5.09251301982873    5.51375056689832
F        -6.65019254007365    3.14073623605898    6.09872926560482
F        -7.53619308981798    4.89274082074580    6.96661282655813
F        -7.28629292112461    6.30860559620059    3.42514926964119
F        -9.41181758933208    5.92583741751480    3.46228473925986
F        -8.44134048416104    6.75967546229924    5.18543764681555
H       -12.29257600330511    4.35955104916123    6.88501481165564
H       -11.65873766493811    5.51375362712363    2.62427390165587
H       -13.34793714853224    5.95534652107530    2.80517957992526
H       -13.64223431102670    7.61396953343129    7.25157094198535
H       -11.51913097490442    7.92976824167601    3.96090750683947
N       -12.00857450419911    2.01268328673720    1.45937501614658
N       -12.02370647408548    3.76678288892870    6.09665194994970
N       -12.37371692313416    5.49449682232917    4.63480135736195
O        -9.30033436672472    4.02580945391000    5.20524153751087
O        -7.63936553989474    3.64220281467779    3.63169526019004
Pd      -10.47270241193334    3.36442917579351    3.70433040972129

