29
CSD_code = EFOBUW | q = 0 | S = 0 | Stoichiometry = C6H14Cl4N2O2Pt | MND = 6
Pt       -0.00171899494733    0.00089643302636   -0.00124805087243
Cl       -1.19741233540396    1.99435677994764   -0.50452005555042
Cl        1.54414994339766    1.22485901409286    1.31498362491121
N         1.24854029866874    0.36443315043673   -1.55859158803863
H         2.21132239554749    0.52234635312597   -1.26502482424583
C         1.02850893142672    0.53174087537225   -2.81601938979385
O        -0.12203508352768    0.35552759477489   -3.37828280119846
C         2.14778519825880    0.89815998570940   -3.75291679968374
H         2.80850959537737    1.62450886594022   -3.27840481012722
H         1.71227965328496    1.33837750730032   -4.64950792435320
C         2.93122078069656   -0.36505305489579   -4.12172962241944
H         3.35139623319496   -0.83408927289743   -3.23531194655583
H         3.74248836659125   -0.10929650218769   -4.79736308936312
H         2.28054101432554   -1.08147421758545   -4.61590426273013
H        -0.81257472007739   -0.01201992944439   -2.75459291112229
Cl        1.19265398746538   -1.99329576458625    0.50134485982986
Cl       -1.54726834173566   -1.22362820079218   -1.31762061380452
N        -1.25146144321990   -0.36260905631968    1.55685696151668
H        -2.21481845324719   -0.51853006027831    1.26412711364159
C        -1.02994833938447   -0.53249877733203    2.81366325732823
O         0.12179157096417   -0.35909872988890    3.37441130170577
H         0.81185497651508    0.00863381802547    2.75043224705861
C        -2.14791126285719   -0.89890572172549    3.75211954559304
H        -2.81193077799401   -1.62205694948440    3.27733849490583
H        -1.71111164489199   -1.34285906978530    4.64624164339094
C        -2.92687424032809    0.36530968635808    4.12690726091742
H        -3.35028815877103    0.83684089844624    3.24337158874007
H        -3.73542282826630    0.11003064488398    4.80597297905892
H        -2.27226632106055    1.07939369976147    4.61926781126063

