67
CSD_code = EFOCEH | q = 0 | S = 0 | Stoichiometry = C22H39ClP3RhSi | MND = 6
Rh        3.76724149851561    2.48053323953415    1.39687424908756
Cl        5.82384100359483    1.69612716190505    2.49408267660716
P         4.97147784938758    4.13908608512138    0.43363708360475
P         2.91479739641156    0.44162480674987    1.99315323060402
P         3.13477767796377    3.57790094149677    3.35604540546879
Si        1.96175598152498    3.29958420773093    0.10952508433760
C         2.56674995720495    5.01660293868317   -0.57380187752483
C         4.03118358116525    4.89445133535042   -0.95464157148099
C         0.20309573786514    3.68627435393305    0.81285435321582
C         1.55388887425895    2.29031965530484   -1.49098248839549
C         5.58657408857766    5.52813874444423    1.44239842628233
C         5.15490772195051    6.84480358559010    1.33413529148650
C         5.69556252333923    7.81962676276244    2.15633221514898
C         6.66034170222500    7.48757553396357    3.09253376623393
C         7.08837881842739    6.17394704486918    3.20963466140184
C         6.55550681734616    5.19851294498121    2.38874824428277
C         6.54374604340168    3.74376087927058   -0.40778457338777
C         7.30618383845121    4.79543954770446   -0.91288096380708
C         8.48118736789578    4.53957203943835   -1.59242487337581
C         8.91117371956439    3.23366997791960   -1.76939610223003
C         8.16002802962087    2.18654846995849   -1.26556405115817
C         6.97823228895593    2.43901806403213   -0.59017116908239
C         3.39625730256772   -0.27037625285266    3.61390997878263
C         3.52537780983423   -0.90204469704748    0.91035973193602
C         1.11369219745370    0.07503057141513    1.96233970094485
C         4.31790499385390    3.49699231801363    4.75051892639669
C         2.78102399648833    5.38193697251991    3.37682927943266
C         1.60135398216271    3.02654327516265    4.21322666491385
H         4.17139049429333    1.75943586654651    0.13102412153420
H         1.98220451353116    5.32973702131776   -1.43908733202886
H         2.44787219932049    5.78574398132222    0.19031011403412
H         4.48508887756520    5.84265575343520   -1.26006433425304
H         4.13646523190421    4.18865356172685   -1.78611334944351
H         0.21775073295586    4.41480353919319    1.61582399776819
H        -0.41671094573222    4.08646305666388    0.01795149373699
H        -0.27842435840591    2.78818193450689    1.18141044381800
H         0.81834716741204    2.81706652826842   -2.09107162423884
H         2.43583437938457    2.13078487101849   -2.10256285059394
H         1.14412368367905    1.31474158654679   -1.25090216699910
H         4.39532359349660    7.11520735386078    0.61491764100666
H         5.36003284652015    8.84310924715231    2.06524250229740
H         7.07806944951740    8.25257988237779    3.73070493500303
H         7.84017138987786    5.91290307664270    3.94043004012004
H         6.87783763658041    4.16760986807089    2.46935607604901
H         6.98150845109930    5.81693982045541   -0.76445901193740
H         9.06694486914346    5.36035594836861   -1.98133570968419
H         9.83405797788543    3.03641632959274   -2.29542391175261
H         8.49654751088433    1.16816464894768   -1.39463821618466
H         6.40046856915906    1.62219992576855   -0.18354915357184
H         2.98697490616663    0.30858633849576    4.43887023532513
H         3.04381346314658   -1.29990226568671    3.67953059909876
H         4.48379140839622   -0.24287109701252    3.67486780762556
H         3.15524704526026   -1.86959280639717    1.25083223291538
H         3.19955715197736   -0.71747639398318   -0.11220617531246
H         4.61442616811081   -0.89206262517762    0.94217166411794
H         0.58272201607216    0.71411240404404    2.66289751263199
H         0.73670982097890    0.27084152868798    0.96121334238753
H         0.94213830280336   -0.96928881881673    2.22048311344365
H         4.57276498973173    2.45716375473252    4.94791504074030
H         5.23113030955298    4.01521464939260    4.46100453014834
H         3.89156244008658    3.96068214859492    5.64064557390273
H         3.67809536413345    5.93998438450653    3.12015334503542
H         2.00457366304434    5.61082701141605    2.65017983912894
H         2.44700372978891    5.67984424855166    4.37050720639184
H         1.45058319639990    3.61314499435240    5.11935274957269
H         0.75274664424306    3.16326988003476    3.54714027881621
H         1.67301231003518    1.97436835448185    4.47778609963045

