78
CSD_code = EFOCOR | q = 0 | S = 0 | Stoichiometry = C25H47P4RhSi | MND = 5
Rh       -0.06425203430293    5.13039644782813    0.44578212669723
P         0.71010300033900    3.86874992400365   -1.31482696246444
P        -2.53965079901736    5.32049566049586    0.54091901320010
P         0.79241561431763    6.65105435787427    1.98909283117182
P         0.17405607841615    3.33424874728721    1.88449003522425
Si        0.09176042093257    6.82229180236573   -1.20194162624389
C         1.78565672861632    7.75826667609304   -1.45908724581818
C        -1.10437532952872    8.32980428223811   -1.45499000046784
C        -0.01352936665488    5.91214163445120   -2.91173802301872
C         1.04829336536072    4.83562844002640   -2.84964681802013
C         2.32006536417856    3.01406449418840   -1.11238316724012
C         3.36867016185580    3.85188201400135   -0.73478643284989
C         4.62984559415123    3.34851612745008   -0.48925406349986
C         4.85902774541563    1.98422239832292   -0.59410832876687
C         3.81956007299387    1.13965021398871   -0.94126789455789
C         2.55628665390923    1.64689406548942   -1.19919862226839
C        -0.32086671566711    2.54792927782401   -2.06990980309412
C        -1.60095865026613    2.35372049032294   -1.57246855077126
C        -2.45244333175075    1.42254942906373   -2.13857329183020
C        -2.02527643157059    0.66961310125960   -3.21890532640284
C        -0.75042705605376    0.85906994072576   -3.72892572197262
C         0.09688142941566    1.79436217111084   -3.16385790106891
C        -3.14806640650847    6.88527541355758    1.30232151518168
C        -3.64921352134923    4.17485764497509    1.48419148573898
C        -3.53689963070316    5.38659975729872   -1.01121423873108
C         0.33575597782968    8.43459379982018    1.94912671684290
C         2.62554074081182    6.85769321339375    2.00761916921052
C         0.53690943728343    6.42962102339508    3.80891072531838
C        -0.78898793610861    3.15506703891640    3.45407878952507
C         1.87977811006690    3.06982113518069    2.53224788468007
C        -0.10642227075964    1.61638517630778    1.28423134446505
H         2.65050959368692    7.11737306797335   -1.31873408942131
H         1.83124201989300    8.15062653985571   -2.47113008241276
H         1.88904801180925    8.60066414702999   -0.78270099011983
H        -1.09473859040066    8.98958536322664   -0.59559446832951
H        -0.77872668102241    8.90770619781748   -2.31336608099523
H        -2.13162217739908    8.03376035965133   -1.63063617805432
H        -0.98993382651067    5.44528696005947   -3.05141463629838
H         0.15837187475639    6.57614630659454   -3.75825360793511
H         2.03821728125404    5.28839737997048   -2.75603373139350
H         1.04775727711129    4.17836641776223   -3.72485635656656
H         3.16171507677422    4.90854084078505   -0.61247363739963
H         5.43457392367267    4.01234483758005   -0.20556692677522
H         5.84197420018955    1.58187312737445   -0.39648660298542
H         3.99070382044173    0.07452897850884   -1.01231557437667
H         1.75998554055273    0.96744480367116   -1.47152593664665
H        -1.91256503630547    2.96059007947819   -0.73024426166137
H        -3.44929199845659    1.28341330466916   -1.74236673702655
H        -2.68356613553011   -0.06053579973983   -3.66729426529985
H        -0.41713063943113    0.27530604636292   -4.57564742798196
H         1.08739480499808    1.93570743043839   -3.57543617692746
H        -2.78273461384069    6.94240954640939    2.32653235239722
H        -2.74535419936565    7.72362943417731    0.74057509501500
H        -4.23695492384934    6.92694441602090    1.30140896285391
H        -4.69436919918992    4.43436433319969    1.31826487832201
H        -3.48163893383215    3.14568252451521    1.17083798866630
H        -3.42299522139369    4.25837820004754    2.54530606466208
H        -4.55824915100835    5.70165717300211   -0.79846625468275
H        -3.07307488520460    6.08788674169264   -1.69919373337066
H        -3.55029105897997    4.40651937974342   -1.48355881445050
H         0.86892991195772    8.98201686742864    2.72629941863979
H         0.58101250235841    8.84934232728555    0.97693975201003
H        -0.73583422282257    8.53357550115447    2.10729570851736
H         3.10461696724699    5.88817236068369    2.12920643361951
H         2.92885449841657    7.27350963640144    1.05050408526547
H         2.93589814809262    7.52554775110574    2.81099127101822
H        -0.53028434568470    6.47705417062718    4.02257874736145
H         0.91831138820877    5.46525733296084    4.13587636432400
H         1.04483037867782    7.22086256771478    4.36016663688567
H        -0.95039510203743    4.11855402465694    3.92839393876485
H        -1.75827407096842    2.72501518775321    3.20936294705825
H        -0.26975127984311    2.49091073421193    4.14458802583702
H         1.92465705922616    2.16978296232343    3.14539689426092
H         2.55829636741661    2.96617196050512    1.68653053177618
H         2.19382600561302    3.92771215162251    3.12254197100170
H        -1.15029038739694    1.48432275767709    1.00664372601791
H         0.51146962384074    1.43554680428757    0.40787912544646
H         0.15093338862927    0.90088086442065    2.06554803324693

