55
CSD_code = EFOFEK | q = 0 | S = 0 | Stoichiometry = C26H20N6O2Ru | MND = 6
Ru        4.03591666940844    2.27363274604193    8.42618093302761
O         2.16094385023720    2.99924500239721    9.05458893696729
O         5.06757754251081    3.37136572160756    9.89807784016551
N         5.73754685411589    2.14049734981348    7.33987340261887
N         3.70401382862199    3.64478641698502    7.16468754885811
N         2.57132383947699    4.33877440907944    7.23617465463944
N         3.12388160169098    0.69817752959467    7.54405283947564
N         4.34450764735431    0.95796405935826    9.75106001263634
N         5.00641967819769    1.28675245545542   10.85725933036073
C         6.78359464888781    1.33752067527488    7.50462446098251
H         6.70685138244897    0.60529769733793    8.30087067860880
C         7.91983109825661    1.40856093461083    6.72089680703305
H         8.74032169559487    0.73304674343879    6.89794696366122
C         7.97895982683601    2.36647041505009    5.71044667999176
H         8.85395322944137    2.44654742819462    5.08370672800431
C         6.90596633988131    3.20872995154398    5.52856038151889
H         6.91066164579820    3.96841715154480    4.76309546230410
C         5.77994855128319    3.09069930844702    6.35755208565901
C         4.62648156556760    3.91712870487955    6.27362199730095
H         4.52125958838599    4.72356595830145    5.55994078376390
C         1.82526121782982    3.92824073918171    8.25921101777092
C         0.53003069344132    4.60747332685933    8.45297994336088
C         0.13036436083494    5.63689224632101    7.60367705636081
H         0.78891863651668    5.93268072841424    6.80301051937222
C        -1.08840021903758    6.25734693396526    7.79949780201705
H        -1.39824348498715    7.05624065036136    7.14151441839670
C        -1.91504221148056    5.85900659837749    8.83907987907589
H        -2.86693539961212    6.34754336648604    8.98941619484399
C        -1.52078402125597    4.83575654312969    9.68634064437365
H        -2.16513062223820    4.52684813253612   10.49660514281424
C        -0.30331003423044    4.21062531088809    9.49628287744903
H         0.02167162858621    3.41255189569310   10.14699431120387
C         2.47290499196779    0.63961321671063    6.38695598513032
H         2.46869770550818    1.54590423871962    5.79140580278378
C         1.82734210038154   -0.49843843708146    5.94158091227600
H         1.31271520143593   -0.49119281801677    4.99502308915864
C         1.85501632552292   -1.64088693456526    6.73916716886429
H         1.35850170586238   -2.54375099519562    6.41801462468958
C         2.52195287691028   -1.59660143375523    7.94209911665559
H         2.56421864695813   -2.45485762027091    8.59377564398532
C         3.15618811454350   -0.41084981062058    8.34315678936331
C         3.85299029772095   -0.24415136485098    9.57089598466998
H         3.94900618070335   -1.02567972709433   10.31304238981348
C         5.34595137162425    2.57372842052714   10.84392198584908
C         6.09820402284008    3.07608103825683   12.00942263256840
C         6.43143006155466    2.22801447716760   13.06324170358174
H         6.12232920016242    1.19632505045466   13.01511309653906
C         7.14295091514562    2.71670467340574   14.14196232129977
H         7.40140580189339    2.05945075427050   14.95950440349402
C         7.52569231433446    4.04893166964072   14.17957877152721
H         8.08161835666780    4.42729099049322   15.02526186618438
C         7.19479721014264    4.89603442227048   13.13393096958440
H         7.49246140281803    5.93409244348073   13.16491893518595
C         6.48388582054098    4.41395786765481   12.05165454771148
H         6.21607774639110    5.05889274722254   11.22804292447202

