57
CSD_code = EFOGUE | q = 0 | S = 0 | Stoichiometry = C22H24CdN6O4 | MND = 6
Cd       -2.23155674404402    5.14934568293727    6.40209771258505
O        -2.28771321532640    5.41113946303012    8.52246310242825
N        -0.49240669726398    6.56308530097238    6.79099229354393
O        -2.21277964084253    7.24674937940462    9.78043604706817
N        -0.90741757301202    3.22121729583505    6.49242818730855
N        -0.74223061370684    1.47309881390746    5.17693633832835
H        -0.55675855080304    0.93353921059393    4.34707290364390
C        -0.66769517858162    7.08038785734815    8.00505094234634
C         0.47872594240225    7.03382134906984    6.01301269607189
C        -1.82560207892240    6.53431363056053    8.85898976091799
C        -0.40851419167458    2.76237917152633    5.37132670693648
H         0.19272846472439    3.32228367694250    4.68234080998105
C         0.12509137670743    8.10604510256799    8.50210252149194
H        -0.07792214760170    8.48483465017058    9.49143084540715
C        -1.59596873472317    2.17814631634779    7.04827400652849
H        -2.08439941977353    2.28759213413143    7.99815505222307
C        -1.51679884468706    1.08173904119908    6.23741762120916
C         0.65391762253512    6.42414218062787    4.66054272046717
H        -0.25970724738933    5.91432329791204    4.35667237815407
H         1.46712543350890    5.69807388199069    4.69372810830772
H         0.91438943645963    7.18482749518854    3.92717293763055
C         1.31789487594024    8.06006283518517    6.44535663459117
H         2.09817916442748    8.42251417231666    5.79288983065925
C         1.14098206296141    8.60350472954002    7.70514028846538
H         1.78180314056638    9.40008701753826    8.05562353034102
C        -2.10089948705077   -0.27932636122781    6.33937766714522
H        -2.76966961958037   -0.46733447141232    5.49937049197999
H        -2.66643388971679   -0.36748845984018    7.26216360475269
H        -1.32024970562437   -1.03983174827093    6.33152694568909
O        -2.17364744238364    4.88335517704706    4.28093356010028
N        -3.97460539314839    3.74266715730896    6.01261579255528
O        -2.24929525970549    3.04334856017246    3.02933322115924
N        -3.55150432182931    7.08070135594764    6.30932340996966
N        -3.70093241043523    8.84221560242872    7.60864453929239
H        -3.87999772443381    9.39177382680020    8.43337051321593
C        -3.79760715332868    3.21945056343130    4.80141004949612
C        -4.95050983005888    3.27975098551256    6.78938071172599
C        -2.63676460238330    3.75953405783219    3.94779614167731
C        -4.03811755100581    7.55135511618365    7.43089426209933
H        -4.63251600081056    6.99927379128822    8.13204531977994
C        -4.59298391552701    2.19483753458981    4.30632230329744
H        -4.38862620511194    1.81107563196753    3.31920026411887
C        -2.86825552510936    8.11737405509736    5.73523849202005
H        -2.39024198324996    7.99742384839792    4.78133205686881
C        -2.93790529300349    9.22223894612762    6.53550876473181
C        -5.12777338656540    3.89768205394259    8.13779926581146
H        -4.20747564883941    4.39061024640677    8.44944053121219
H        -5.92496013554021    4.64064702643310    8.09230182494669
H        -5.41194681773600    3.14577930444132    8.87127860267665
C        -5.79311212114492    2.25575727545611    6.35845120879983
H        -6.57734093982371    1.89959532045568    7.00975124926618
C        -5.61410756755116    1.70574531538833    5.10178405071283
H        -6.25745924511150    0.91064414812883    4.75256865645405
C        -2.35425396955185   10.58188244498467    6.41309335214373
H        -1.67213042400311   10.77654729725788    7.24085151446219
H        -1.80319934611761   10.66174176591359    5.48080109069821
H        -3.13404372642656   11.34321894496046    6.42673656450740

