62
CSD_code = EFOHUF | q = 0 | S = 0 | Stoichiometry = C25H25N2O9V | MND = 6
V         2.99043569145249    6.13561210591978    2.70507981134912
N         4.09388488746586    5.17370802100106    1.33710119292594
N         3.44360656050068    4.25986024284737    0.62704688630957
O         4.46621243694955    6.55324860994170    3.37658304978893
O         1.81379048862263    4.78925945878511    2.07671053545986
O         5.80417218424030    8.32351473152146    4.80576679501476
O        -2.14282274932095    2.14721582417626    0.72336271385652
O         1.36421298883369    0.89135074712000   -2.40051729802469
O         1.90519911555446    6.32876128880819    4.04465025603801
O         3.42729211927345    4.13767170631953    4.09866139935320
C         1.24827304748145    3.53386992017914    6.86250373429107
H         0.97446692101963    2.85946868551434    7.66193302797137
O         2.65250203339178    7.24427867238053    1.71401801499893
C         6.09600010572142    6.44827642788609    1.70264488542871
C         5.61185423561526    6.96038551135010    2.92668323126933
C         6.38837553911523    7.89818370495428    3.65492311029774
C         7.61512018601290    8.29606611722571    3.15865429737985
H         8.21847998228514    9.01160018260732    3.69458616175698
C         8.09192793344882    7.77332322286646    1.95503415747225
H         9.05452207129209    8.09834372215749    1.59145221956071
C         7.35508217385657    6.86386340061007    1.23826859421810
H         7.72632584306764    6.46807075351539    0.30547658937922
C         5.29881815268502    5.49356188649130    0.99687810900426
H         5.72617929440405    5.00275573536188    0.12144544243816
C         2.21227705415453    4.12700937794889    1.06657831867798
C         1.30026673995984    3.19654617965561    0.38023020974641
C        -0.00577136962453    3.07425061853042    0.83923452827964
H        -0.34451639957037    3.65765980714780    1.68053256057140
C        -0.88481960061205    2.20291325305808    0.20517220848871
C        -0.45489887143129    1.45400610332912   -0.88710618222042
H        -1.13489595642769    0.77920806611931   -1.37945578787189
C         0.85588239448360    1.58040212402999   -1.34270609635629
C         1.73511335367880    2.45211740853879   -0.70884245747234
H         2.74602735821439    2.54900212915007   -1.06384572371630
C         0.52906048482645    0.00424369405076   -3.10313459762616
H         0.17312051947914   -0.80979110637792   -2.46270466864991
H         1.14582043386374   -0.41135820495918   -3.89844082578382
H        -0.32808204978526    0.52148067291944   -3.54687866295507
C        -3.09323929038084    1.30684829838330    0.11610932410456
H        -3.27209626048145    1.58702601536264   -0.92712526110713
H        -4.01170080525962    1.44328752651222    0.68490637778867
H        -2.79312367283615    0.25473844030323    0.16573756630766
C         6.42802449975688    9.35304940376277    5.54619847441696
H         6.59081298766917   10.23070936602323    4.90559407639640
H         7.40089336422932    9.00898474212046    5.92605422706940
C         5.50411497119567    9.70673595190735    6.70097686748115
H         4.54155529871530   10.02972704188980    6.31401869789430
H         5.93971951461687   10.50478876359668    7.29557373455348
H         5.34817790224299    8.83458980739969    7.32994649281402
C         1.67768978753624    5.43659487979952    4.95714536295996
C         2.53821426952478    4.24702947801705    4.94884555080455
C         2.24645467280069    3.28947971595068    5.98615241145850
H         2.83016738090625    2.38582875807212    6.04946741667345
O         0.48834356262329    4.62513910607737    6.84994949446398
C         0.69110764676701    5.57000597375381    5.90554871558792
C        -0.19869322690050    6.77206449813381    5.99441003732178
H        -0.95406427360739    6.59194078681070    6.76099545237202
H        -0.69130031482630    6.91161554735384    5.02870041381639
C         0.60943400507198    8.03196513266332    6.31721154154956
H         1.11479456253902    7.92942844264826    7.27521219681410
H        -0.05074040343695    8.89411697152668    6.36135608228468
H         1.35345848735785    8.20046454925412    5.54013500553167

