49
CSD_code = EFOHOZ | q = 0 | S = 0 | Stoichiometry = C18H21N2O7V | MND = 6
V        -3.73194226756352    3.83934851786718    8.43506547912344
N        -3.60033043629859    2.17136579279128    9.59131431549498
N        -4.25024791210117    1.10732557896598    9.11154085179692
O        -3.16221139898320    4.64485932111504    9.82485576746599
O        -5.00424933756847    2.65843472042002    7.66496567707297
O        -7.66647358531601   -0.02966154705589    4.25190802180088
O        -6.58153112960994   -3.16148456594074    7.52169536803192
O        -5.95262280720493    3.96829835448768    9.96470260103628
O        -4.53889830861823    5.07558110760910    7.69461657445927
O        -2.49357974447230    3.43021268937935    7.64505581808288
C        -2.07527400137595    3.07341445274649   11.20088486173151
C        -2.30317893391006    4.40940445541896   10.77047082849225
C        -1.61018284714313    5.45094789435838   11.40761257201523
H        -1.79072491126157    6.46303544082938   11.07415824959059
C        -0.71668726460947    5.18278346101458   12.42130086201207
H        -0.18777732223614    5.99662251866288   12.89482344023616
C        -0.49133132462601    3.87431609348448   12.84152879472022
H         0.21112960840447    3.67753701720664   13.63663893138819
C        -1.16697404426990    2.83666847831408   12.24075995912703
H        -0.99946405408863    1.81853375026704   12.56128933587815
C        -2.80249728310520    2.00516527230624   10.59122440837925
H        -2.67958817905324    0.99662838568750   10.99037136975112
C        -4.95034201265332    1.44206270911220    8.05509316280872
C        -5.68937437791678    0.39930647120625    7.32574705469400
C        -6.31964523899999    0.73736865577422    6.13180018856717
H        -6.23340869118552    1.75366854729164    5.78175633605003
C        -7.01810052695340   -0.23767074154165    5.42921907856148
C        -7.08336021375967   -1.53182859501637    5.93553169804157
H        -7.62634580433771   -2.28736428910593    5.39241433830888
C        -6.45087768300915   -1.86687423804048    7.12992274412668
C        -5.74563974247761   -0.89568419095890    7.83100749533256
H        -5.23463848930512   -1.09834918084883    8.75565339007954
C        -7.60759036687140    1.25276199580927    3.67396098911581
H        -8.07486537055900    2.00512390789191    4.31754436738550
H        -8.16544681648399    1.18057993034555    2.74157978739579
H        -6.57645930704357    1.54906277362077    3.45788675009849
C        -5.94336735030010   -3.56739145132835    8.71016022733678
H        -4.85961321091639   -3.43010035341287    8.64979594831093
H        -6.16888337865205   -4.62743017226831    8.81614883165292
H        -6.32998630576030   -3.02502278053470    9.57841535566886
C        -6.10066351745419    5.17125965328047   10.69085068727611
H        -5.54089330905814    5.05158592437160   11.61816558062439
H        -7.15488092936836    5.35403702714902   10.93014257104064
H        -5.69690448242955    6.02674897666281   10.13888093041459
C        -4.69133860312296    5.72873981483295    6.50542261971593
H        -3.71660832218918    5.85374011711933    6.00933753853805
H        -5.15584378739825    6.71517292736924    6.65880587029916
H        -5.34643294306275    5.13163783743977    5.84794395878559
H        -6.45585173371050    4.04752153383181    9.14282841208306

