23
CSD_code = EFOJIV | q = 0 | S = 0 | Stoichiometry = C10H6Cl4N2Pd | MND = 4
Pd        5.00738413816254    3.16730134230598    8.08133189410684
Cl        5.16079411335261    1.13946788859170    7.22137206331175
Cl        4.07167150826619    3.85724524971225    6.20407583952648
N         5.67948237492956    2.63609563249542    9.93864867662732
C         5.71270031120376    1.38839074627518   10.39795226212065
H         5.74200421648176    0.61029499686128    9.64270157051149
C         5.70063143175611    1.10471814457489   11.75300915738397
H         5.75701920276713    0.08458393251797   12.09554768900745
C         5.54971416410127    2.14779988462175   12.65266131213107
H         5.44128950885688    1.96559734356583   13.70992583625080
C         5.50622360045189    3.45001531329554   12.16999785330347
Cl        5.11253514561723    4.72169046562994   13.26040987495331
C         5.66633274317644    3.67825637292107   10.79766893004289
C         5.71654152972451    4.99068400463324   10.14177828338876
C         6.40425193116885    6.11781467112026   10.60842172741182
Cl        7.49263724127293    6.02944420624021   11.93831328005393
C         6.29911516580327    7.31532062705370    9.91165001680207
H         6.81454815371529    8.19104217286560   10.27252648533284
C         5.55463010968051    7.34760694077003    8.74324184614422
H         5.43725699184937    8.26439242798784    8.18912887354784
C         5.01599643523227    6.16645461694688    8.26221328766114
H         4.49718084574279    6.11026406747769    7.31116445325696
N         5.11075913668741    5.02311895153765    8.93505878712072

