60
CSD_code = EFOJUH | q = 0 | S = 0 | Stoichiometry = C26H26Cl2N4PdSi | MND = 4
Pd        6.75626882058045    4.21303269962549   17.24070859884633
Cl        5.61090952769222    2.96973402505138   18.67488517086427
Cl        7.93198852322116    5.01160787341600   18.94189003155603
N         5.64707331947071    3.71236043914779   15.61789162591551
C         6.03898827439435    4.35009416792981   14.49209896399700
C         5.12950472460636    4.57013442639802   13.44537100121883
C         3.86167374469729    3.98971008137549   13.54757388661262
H         3.15238237291357    4.14628954133832   12.74866310643219
C         3.52771859331372    3.24702361072088   14.66208422574444
H         2.56411164829947    2.77149150355719   14.74455293012410
C         4.44172041595931    3.15865377419939   15.69877457998046
H         4.21553811477875    2.64756993111558   16.62754546738251
N         5.40074440884291    5.40853050542903   12.36571722307375
Si        6.67576139272377    5.09228143347086   11.22033489919473
N         7.98459085152077    4.47170187301482   12.19029538901826
C         8.28785813093999    4.96048264319547   13.45942129613716
C         7.40747744829762    4.86525794374350   14.54920787009070
N         7.83175240082181    5.15176157555243   15.80045141551117
C         9.04209401623435    5.66018952542280   16.00660329350983
H         9.29500521589747    5.88167087138874   17.03712906217394
C         9.92846381713183    5.87729817195185   14.96491054936072
H        10.89683226595032    6.31009213715369   15.15585466311407
C         9.56102181349744    5.48962449923153   13.69220774752659
H        10.24822461882358    5.57429655944238   12.86367601069150
C         4.35612933741651    6.29746530343220   12.04223946695541
C         3.76452629549702    7.05087344103238   13.05436012798309
H         4.10004339902186    6.92752793305682   14.07388227059066
C         2.76185473975379    7.95177167316803   12.76011179463790
H         2.31535743439844    8.52723412118899   13.55760726687064
C         2.32255912861850    8.13604140765519   11.45319908552550
C         2.91644425277530    7.38214598454881   10.45075828555962
H         2.58818240521312    7.50079427903576    9.42820395935690
C         3.91587644564137    6.46965712167932   10.73725972441944
H         4.34777168725790    5.87691501936792    9.94748173687845
C         1.24953908074149    9.13374707800447   11.14324605145750
H         0.83173649427900    8.96174951179957   10.15460447458085
H         1.65899473736823   10.14382462253450   11.16984015865337
H         0.44984406666320    9.08022944404981   11.87892129736830
C         7.14279639156473    6.76413656301724   10.42730185516727
H         6.38700602575550    7.52058545417019   10.61405909862653
H         7.25575454945067    6.68187691860120    9.35042222870178
H         8.08353233669843    7.13746932527148   10.82374765159565
C         6.17855746818974    3.70733651970166   10.00507182529853
H         5.27663854290657    3.19938046877919   10.33728050283490
H         6.95882354346622    2.95856229421677    9.91104965348960
H         5.98351472424377    4.09488697488700    9.00955629267218
C         9.01960093254196    3.72537230232008   11.59151760601969
C         9.42355910936281    3.94741912853604   10.28247670500278
H         8.96899046508431    4.74084396017139    9.71201167039555
C        10.41642563132488    3.16852682816674    9.71509750665970
H        10.71660070165366    3.35842249953275    8.69466093825737
C        11.03835987241407    2.15949036631196   10.43626008529852
C        10.63357622975764    1.94676081754803   11.75028236463231
H        11.10192707701590    1.16558791294730   12.33077267818954
C         9.63842186377201    2.71229934441125   12.32170411908675
H         9.32914631925312    2.52751488237750   13.34022939680322
C        12.10939184741239    1.30992381793148    9.82472335279023
H        12.97510331011342    1.25309447021481   10.48193806611082
H        12.42330889184672    1.71009874008753    8.86419734421967
H        11.74230020092288    0.29524365737043    9.67147434923082

