57
CSD_code = EFOKIW | q = 0 | S = 0 | Stoichiometry = C22H24N6O4Zn | MND = 6
C         0.46004401660100    8.96334599399468    8.15384753332394
C        -0.55362707963980    8.28279303892978    8.81115617768655
H        -0.46797044824463    8.12980258452724    9.87519436893313
C        -1.63056720201016    7.82790255044798    8.07095730015027
H        -2.44213511608413    7.29076492106493    8.54089674083503
C        -1.64527617436463    8.08335785905885    6.71235471887846
H        -2.47030842776141    7.75383507507542    6.09839319323683
C        -0.58637705479092    8.77430712502042    6.12211224436995
C        -0.61640014982004    9.07832764554284    4.66280011428622
H         0.38616312753669    9.29458755997732    4.30612018158823
H        -1.24066461563856    9.95523195571571    4.49005120462276
H        -1.04137500906732    8.24679433392827    4.10531267337302
C         1.65020866996250    9.50058224363847    8.94611608900308
C         3.74787313279723    7.65811574939781    7.67596485924128
H         3.85060819345478    8.15113160310232    8.62097545183024
C         3.28495152131579    7.22896657256774    5.63086089615554
H         2.93079038621813    7.43654784834118    4.64267969526520
C         3.81606099352380    6.08237946619233    6.14704619290629
C         4.07995932813488    4.74789560863693    5.55267681566599
H         3.79296395030473    4.75332091945074    4.50574058350991
H         3.50930857655586    3.97508978913977    6.06791151317980
H         5.13770589390761    4.49437966191413    5.62393021089594
N         0.44927278451314    9.19446044698335    6.84335633295510
N         3.24997451572644    8.19280555787716    6.59146402443694
N         4.10424437853809    6.37756202579209    7.45566553532479
H         4.50141007532891    5.74200880512445    8.12870144490725
O         2.39263547763340   10.31368374165794    8.32608251134951
O         1.79770061697901    9.11349960981419   10.09830004067276
Zn        2.35303691914468   10.10243408288263    6.35083009844753
C         4.24758957472465   11.23896303355285    4.54722299343704
C         5.26252642549452   11.91706511098393    3.88934378281896
H         5.17758028248853   12.06882961319325    2.82507904448447
C         6.33962880905146   12.37185446205805    4.62941911987793
H         7.15214593515019   12.90716376670324    4.15904765488210
C         6.35319396390975   12.11886024271454    5.98847219222854
H         7.17840266472360   12.44830834912837    6.60224148085564
C         5.29323773092390   11.42994751086814    6.57921729456141
C         5.32210792692913   11.12818103443927    8.03900453140934
H         4.31955938139022   10.91060272056960    8.39489700436729
H         5.94798692148450   10.25283122128318    8.21387461934402
H         5.74480864824425   11.96140163369940    8.59574145679411
C         3.05670343871355   10.70281797609415    3.75539938909177
C         0.96057108432481   12.54757286697740    5.02553016565924
H         0.85842475075861   12.05493540067711    4.08025642881544
C         1.42195513850324   12.97572639976742    7.07119297172640
H         1.77528755218954   12.76766547743398    8.05956988462508
C         0.89172168374808   14.12272799026002    6.55502595108602
C         0.62750880733559   15.45699249964161    7.14974697795391
H         0.91330196691061   15.45100052102212    8.19700646033566
H         1.19891630252894   16.22992187730129    6.63554133596897
H        -0.43010350842935   15.71076958505800    7.07740054689635
N         4.25757388227119   11.00972007054573    5.85805089984690
N         1.45735757080851   12.01225513428590    6.11024628844980
N         0.60448811977493   13.82816198954057    5.24606105198989
H         0.20821728019712   14.46408246138941    4.57284488148291
O         2.31353208729857    9.89062093896029    4.37571405200851
O         2.90976429779236   11.08910573605467    2.60285279197004

