151
CSD_code = EFOSUN | q = 0 | S = 0 | Stoichiometry = C48H94B2O4P2Ru | MND = 8
Ru        7.56182431775154    3.46291503387326    4.16505508238872
P         5.42787861614718    3.13896670106755    5.18077880106757
P         9.72195375233697    4.30753461797409    3.47826671137995
O         7.16428996664791    0.34772332824319    4.59511543636391
O         9.22625144354101    0.76309809525018    3.75513760378793
O         5.70386331860442    3.45414841229652    1.51623518421504
O         7.73238530930345    4.36753844354388    1.08953250305881
B         7.97744752836965    1.29649592067963    4.00017649697228
B         6.85270147598403    3.96267839080696    2.07117317119005
C         7.95086871622354   -0.78584223894286    4.96103896752997
C         9.22871660751290   -0.62628187475003    4.06610695085321
C         7.14261531411950   -2.05878194798360    4.71208670565595
H         6.75713370479886   -2.08890515251912    3.69774582305216
H         6.29693370469772   -2.07937668308882    5.39583407365995
H         7.75860495572538   -2.93608730218156    4.89184502649790
C         8.27844193116702   -0.68814316855919    6.45612790488218
H         8.76547994290402    0.26137945400662    6.66542561474732
H         8.91806298774050   -1.50814770698077    6.76916324586358
H         7.35360390441155   -0.73559550710694    7.02604657737432
C         9.11643475404574   -1.38303489589437    2.73386458454413
H         8.19189578482011   -1.11622656791332    2.22704851190249
H         9.15310701707133   -2.45764537567147    2.88755483076461
H         9.94678453747164   -1.08902400752559    2.09523821620111
C        10.54922021378174   -0.99569088447075    4.73862007522257
H        10.74818236523518   -0.34759155425879    5.58574351136348
H        11.35699050804742   -0.86969541324263    4.02123469896966
H        10.53119612822138   -2.03250066766814    5.06458687138995
C         5.88257447382163    3.31831872876857    0.10832749829242
C         7.07090168455473    4.29810411772281   -0.17705305991140
C         6.23928030833923    1.85319595703598   -0.17483980375521
H         7.16754831276074    1.58391436460099    0.32552052094382
H         6.33339341508340    1.67263666666309   -1.24203499363768
H         5.44778659375526    1.22190073629872    0.22381713848375
C         4.57591818469380    3.66360867011471   -0.60163173007750
H         4.19079558041799    4.62218164952856   -0.26815358165335
H         3.83461379537288    2.90322093397056   -0.36778398435314
H         4.72759612087635    3.68717564089845   -1.67767579900185
C         6.59436470121459    5.72240539526017   -0.49637390559486
H         5.90624142162311    6.07008089742584    0.27105638710907
H         6.11253997013216    5.76824099340158   -1.46863788441112
H         7.45769343046431    6.38481408199553   -0.49962328358067
C         8.03453261260560    3.84029798152444   -1.26564030652365
H         8.49075657230632    2.88853417344636   -1.01754223009250
H         8.82409693766501    4.58036385715697   -1.37519941615225
H         7.50576022480680    3.75042556727997   -2.21155103287510
C         4.18506334097276    4.56107928950700    5.03281944303115
H         3.31422114606698    4.26885897303821    5.63339811756244
C         4.73584346564028    5.86795737450126    5.60253406102733
H         5.01560794310337    5.73526630155820    6.64693911604820
H         5.63410376616194    6.15042526994026    5.04811933823362
C         3.70283797971315    6.99098494065265    5.52000123433979
H         2.83819754192750    6.73411767374014    6.13812714398502
H         4.13438448610956    7.91213568943946    5.91811938793373
C         3.24312811453619    7.20717496671976    4.08380371919393
H         2.49067169518071    7.99849553656425    4.04324720470399
H         4.09416641977363    7.51960155169742    3.47402667537707
C         2.67385729863777    5.90677915829373    3.53054382359541
H         2.35090774368095    6.04685626051430    2.49568918255987
H         1.79693757202821    5.61740065471253    4.11629013306146
C         3.72424487668682    4.80022487587435    3.59669199346547
H         4.57967544444695    5.08531995185237    2.98453250689663
H         3.31024481070685    3.88716045704007    3.17153241807216
C         4.34115436370029    1.65915811175758    4.74190805974563
H         4.86708282221941    0.84122407828009    5.24753955537948
C         2.89283600368262    1.70391634222456    5.23124236969743
H         2.83875797926675    1.99909199047154    6.28061430555950
H         2.32365256826080    2.42945084260773    4.64773971723020
C         2.24767164759275    0.32948726288503    5.05457516548470
H         1.21427397201189    0.35566685949192    5.41003855534392
H         2.78788672612824   -0.40788642807681    5.65377147356916
C         2.28177276618092   -0.08894216691513    3.58826221494909
H         1.84131913417422   -1.08233919259451    3.47237926573947
H         1.68326556753582    0.61136136045798    2.99988364935384
C         3.71648604158355   -0.08750673391730    3.06930218201285
H         3.72622767997873   -0.36184363501342    2.01061593369500
H         4.29995102039495   -0.83388165068649    3.61323533224273
C         4.35964942997676    1.28455109823496    3.26093376114411
H         3.82688023241175    2.02048893217577    2.65822502200505
H         5.39133522435851    1.25502826056752    2.91291964061467
C         5.39515757779110    3.01235605685184    7.07737462947040
H         4.47439889598835    3.51112183342091    7.40976339465305
C         6.59515160006674    3.74446559514390    7.68238303542394
H         7.50142333941261    3.21641739595408    7.38146506804727
H         6.67498223664495    4.75490877339958    7.28371424245909
C         6.51363026273619    3.78572766896464    9.20500662762821
H         7.36523646811603    4.34109686898193    9.60352065190946
H         5.60223491298006    4.30436261187055    9.51469109905023
C         6.50623069028887    2.36784707696864    9.76193333370666
H         6.42103936223849    2.38434353211338   10.85116128866029
H         7.44616002805844    1.87481324788701    9.50480682112638
C         5.34464955043349    1.58972186975776    9.15809868473488
H         4.40336454123931    2.04531086049162    9.47827718656693
H         5.35414839715702    0.55969494965131    9.52423088939525
C         5.40344045601078    1.58670570955148    7.62939870855341
H         6.31676983797309    1.09795602827333    7.29196172245112
H         4.55056962707592    1.01196222839811    7.27103783559063
C         9.64992435211339    6.12191766920146    2.92235840839942
H         9.27793946637577    6.02135562422963    1.89356005517989
C        10.99030947972753    6.85782992556678    2.87565674227484
H        11.36183487522008    7.02236380670889    3.88826704735688
H        11.73184508459773    6.27790737299032    2.32903584560719
C        10.83281235173508    8.21066733546132    2.18005045123352
H        11.79727014296951    8.72433830355566    2.15517938006373
H        10.51439967677402    8.05065891822433    1.14660471610075
C         9.80065210922648    9.07374871938630    2.89532717002198
H        10.14647479962567    9.28808849377457    3.90916371274593
H         9.68160423056374   10.02643739171458    2.37371657156749
C         8.46774532433323    8.33726597456748    2.96185273840336
H         8.09215443628866    8.17491529436318    1.94814550776257
H         7.73287871737287    8.94320446945670    3.49722020980188
C         8.63375544392417    6.99089011909929    3.66368180354740
H         7.67101594426185    6.48099168160680    3.69724588402894
H         8.95172931704443    7.16175133450808    4.69245459330531
C        10.79836205950040    3.71279884827087    2.00796917507989
H        10.59148898795900    4.45076585647018    1.22223592301525
C        12.31670954178949    3.63213776671845    2.19609765959264
H        12.73176816830995    4.57163744451060    2.56108856754150
H        12.56391319741920    2.85542368528020    2.91955653884139
C        13.00007785345267    3.28759700726342    0.87210167658503
H        12.78203323770054    4.06293344937811    0.13288405737357
H        14.08310042571290    3.26151527353489    1.01735221256048
C        12.50986618183606    1.94184204937913    0.35307754349039
H        12.99549066781379    1.70270446623489   -0.59632467084023
H        12.77075710751825    1.15956217840335    1.06986164948053
C        10.99730635810297    1.98891489337565    0.17551240954974
H        10.63013594233496    1.01947965640790   -0.17329310648120
H        10.75867978851270    2.73289939307245   -0.58885907594121
C        10.31331183082284    2.36113775942538    1.48902137744914
H        10.51016469054976    1.59351784204952    2.23598458542516
H         9.23298401502552    2.40356018900713    1.34380072844925
C        10.97362877654879    4.30208085589267    4.87620394441979
H        11.91645005442372    4.71052536872977    4.49851307301196
C        10.52561201934674    5.14228987403450    6.06946277547813
H        10.39028884509840    6.18193853557846    5.77275558208940
H         9.56405224306054    4.76491447464972    6.42160080243729
C        11.56026495346264    5.08383322559891    7.19219986280650
H        11.21530746896313    5.68199735197545    8.03869490540255
H        12.50267978563712    5.51492565399627    6.84177807366731
C        11.80299347126762    3.64661642606577    7.63719703949124
H        10.87626653469444    3.23613843292902    8.04330869154945
H        12.55976628361029    3.61935364998154    8.42520569896911
C        12.24723350656347    2.80326499384090    6.44742894689587
H        13.20085190055757    3.18186129824988    6.06851795993832
H        12.40222728120394    1.76728472122966    6.75994857901858
C        11.19385886471380    2.86466422257348    5.34634572678964
H        10.24260342459550    2.48894628358793    5.72802532666171
H        11.47676151490767    2.22140053304915    4.51306873638170
H         7.60361593973752    4.69313382439602    5.07563743039193
H         6.80828827362263    4.53586074886958    3.17792075323527
H         7.49685992735402    2.13476304357173    3.16517411112100
H         8.21834536782755    2.78314186052047    5.36783325529849

