26
CSD_code = EFOTOI | q = 0 | S = 0 | Stoichiometry = C10H8CrN2O5 | MND = 6
Cr        2.41945616688713    6.63984261778037    2.06509183126045
O         3.19572725160342    7.39980654943579   -0.72983537674411
O         1.20101579825504    9.38917323418128    1.98855103248901
O         5.12729535331866    7.81411594730588    2.64661176970587
O         3.80016993732487    4.05907321687512    1.36627613710218
O        -0.06790578166383    5.60771001050342    0.72244312931554
N         1.97880912140886    6.73804710423436    5.19507617134663
N         1.53458699476223    5.99593657403004    6.25706314927642
C         2.89195532687151    7.09840884371203    0.34229851858386
C         1.63258120217103    8.32807766672278    2.13525153089086
C         4.07568367046523    7.34830819689576    2.54220522605035
C         3.25279829432665    4.99983264253814    1.73994460900228
C         0.83411019478338    5.96796547917580    1.33940425635860
C         1.87599873442531    6.06929345138369    4.03572845049681
C         1.32154247021168    4.81858409523649    4.41261385927460
C         1.12789573642214    4.81000571770214    5.76762086167472
C         2.47596990731677    8.06345275161852    5.41852336481721
C         1.52874753038933    6.45728410037449    7.61183875343645
H         1.09420529189232    4.01557443092812    3.73910413532817
H         0.73411026672580    4.05257175756385    6.41655550354668
H         1.71411291657666    8.69164234949178    5.88530217765379
H         2.74213898171274    8.49130158109267    4.45319458626299
H         3.36513133857035    8.04594627986959    6.05313841036298
H         0.88188191985915    7.33052639858490    7.72817981089366
H         2.53705062217889    6.71909555316790    7.94125451102563
H         1.15183075320441    5.65912344959525    8.24756359058830

