147
CSD_code = EFOWUU | q = 1 | S = 0 | Stoichiometry = C74H62ClNO5OsP3(1+) | MND = 7
Os       -0.34286063771182    8.30807866680251   17.42622737106370
Cl       -1.43418989820921    8.64691179463129   19.50825843700893
P         1.44855490717757    9.67593686688410   18.12847884327587
P        -2.10773135542677    6.76287686929640   17.02067551140781
P        -2.62109571959386   11.80233444697910   15.23882837106653
O         0.71742134011399    6.83076493747672   18.75781514270972
O         0.73232405515096    5.87434824369554   11.61980703407518
N         1.36637841875892    6.28302726250157   17.72322481146610
O         3.65778975126009    7.76867727449464   11.37266601734792
O         2.68892332320092    4.82826453599101   11.91663928319613
O         4.80399199799587    7.04950142167768   13.15709865687096
C         2.19473467819443    9.55000039513044   19.79172673867658
C         1.02087733494570    6.94362748056408   16.65424484632169
C         2.90313664452618    9.46008130931640   17.05555442977398
C        -1.56823931112457    9.89272148931142   16.95068917064157
H        -2.20290952824409   10.35868489678421   17.70304473758091
C         1.50425236143939    6.96162196348498   15.33597981163932
C        -0.71271030662735    9.78838520795332   14.75904050713775
H        -0.64820173471023   10.08235062735299   13.71891395722861
C         0.94165975077327    7.98785236933209   14.62799831135821
C        -0.70934823081143    3.69627299983638   19.26592802522148
H        -0.44190277789618    3.56079092632737   20.30308376920404
C        -3.95076955066086   12.02153501047577   16.43369083548765
C         1.69261218473733    8.73656911159409   20.79738258763588
H         0.83006224859440    8.11690077910710   20.61071264678798
C        -1.22719962531714    4.90531645232921   18.84211879802972
H        -1.36463066868223    5.71485721260809   19.54623697650333
C         2.92831717709580   10.03676203573361   15.78790080886247
H         2.08992797058367   10.63862783164652   15.46470290650048
C        -1.84907844668732    6.32077604581243   14.29371545378355
H        -0.79684455059277    6.25310127892124   14.52149480454743
C        -2.75675857074307    6.56063298956069   15.32356562465795
C        -0.52870758857462    2.66299597684771   18.36019620890886
H        -0.11842130593024    1.72077912620298   18.69049811750607
C         3.79114429347039    4.16585865014415   19.46754951576338
H         4.35949809524208    4.17385868635858   20.38496919945021
C         3.30689617376812   10.35478726277865   20.04435105184716
H         3.69582513238311   10.99693638273810   19.26546144393761
C        -1.56403964054503    5.09247374559632   17.49909768459614
C         2.95544747603237    5.22465944707857   19.17081864818963
H         2.84579333301640    6.06086059517108   19.84577634045381
C        -0.00500052860980    8.78043118007433   15.33083200547153
C         3.94739120512331    8.62584467549940   17.44294957368362
H         3.92215290049908    8.14760201014212   18.41261596354768
C        -0.87929676655255    2.83854004813692   17.03202530737872
H        -0.75246906728361    2.02891425202464   16.32828305079936
C        -3.64643495405639    7.00059509626104   17.97142770981036
C         1.12941788592401   11.47737914133412   18.15940487274629
C        -1.38994128573048    4.04977467272505   16.59620381803168
H        -1.66038781807504    4.17848350166455   15.55782631676875
C         1.44328633732458    8.05157082462509   13.22295213323238
H         1.96608937015547    8.98723189267552   13.02347249135242
H         0.62827603257732    7.95472569030736   12.50124460660616
C         2.50518042767660    6.19867283709964   14.52633520112489
H         2.31156947745202    5.12651541652342   14.49308419215310
H         3.52048833448680    6.33934039433879   14.90839571730164
C         3.89713780714998    3.09630569615609   18.59258632657810
H         4.55017760510026    2.27016459864256   18.82756595142625
C         2.30966588920396    4.12985695446941   17.11752549561444
H         1.68375968560059    4.09786948816376   16.24020873802435
C         2.30791544022836    8.71473151845166   22.03889605481308
H         1.91452653943671    8.07720412330833   22.81671103132568
C         2.38918159214202    6.83104326091248   13.11483829328717
C        -1.59278974866654   10.41796215988573   15.69719752603902
C         2.23129269987604    5.21398440674273   17.98309957299147
C        -2.28006636914768    6.16544048289716   12.98970376853211
H        -1.55880040297994    5.97850451781102   12.20882023155426
C        -3.66150939436976   10.16918699529951   13.28186747417883
H        -3.46183501440181    9.36980216935192   13.98341360206422
C        -4.19199858817592    6.02282693328058   18.79418804635634
H        -3.70845913940039    5.06301901045186   18.90066844067466
C         0.54038521721336   14.17602947022461   18.48674980093099
H         0.31508350028674   15.22453307284737   18.61226411932341
C        -1.65647256039976   13.33048837043472   15.18601888729404
C        -0.26811400798483   13.21413547752410   19.07120890794610
H        -1.11222892783890   13.51465092757758   19.67545171639837
C         3.76593119271545    7.21759942770261   12.58016310976195
C        -3.62738199137011   12.54132798370800   17.68584955680750
H        -2.60758806723414   12.83703599304467   17.89317404394389
C         1.95461417607390   12.44608092499603   17.60211371321615
H         2.84089855404899   12.16256205869987   17.05362254797405
C        -6.00344509721869    7.49624048490924   19.36027814206715
H        -6.91166681328954    7.69133533290508   19.91012648176984
C         3.91392848459396   10.32748585497385   21.28363412040637
H         4.77621321279107   10.94963387559204   21.47227584589456
C         3.41619651978629    9.50527896958736   22.28403505831816
H         3.89301631845942    9.48624553630845   23.25252486572853
C        -5.36461113031875    6.27559231212388   19.48627909865720
H        -5.77721929317796    5.51273068952073   20.12937950909748
C         1.65357483031338   13.78820544621298   17.76223111379905
H         2.30451248946532   14.53613929935729   17.33426738914865
C        -3.33022213476832   11.48267070547270   13.60933145788133
C         3.15050059407374    3.07740643788340   17.42527896622887
H         3.21254029619484    2.23129430067481   16.75800970195431
C        -3.63211632894193    6.24777686402524   12.69659792760515
H        -3.97375406471729    6.11916093553592   11.68017719539156
C        -5.25520940578616   11.63970206823070   16.14017424267953
H        -5.49555122286477   11.23313721026450   15.16759275711349
C        -4.11204745926206    6.63851060238348   15.01994074558056
H        -4.83783635220485    6.81207821444114   15.80044831183971
C        -5.91990807805382   12.30665700805805   18.34941678353291
H        -6.69022637753490   12.41898780374659   19.09702122664394
C        -5.47601640974862    8.46671959115380   18.52269944529285
H        -5.97379984338218    9.41902110466405   18.41224403198360
C         0.02300266740056   11.87264134207640   18.90911515948438
H        -0.59057256336737   11.11626324143654   19.38105023558277
C         2.28657941640536    3.80416932764467   11.01096472013019
H         2.03634136442231    4.23658893141617   10.04084988713278
H         1.41296124129483    3.27750432427241   11.39942873789945
H         3.13305879435434    3.12880431302322   10.92381901376322
C        -4.30750598210717    8.21974354284704   17.83041641369001
H        -3.89413077809439    8.97078502243303   17.16977187270968
C         1.81903615798492    5.80897936322791   12.12824289622180
C         4.87828741658624    8.15395160286574   10.74664683359673
H         4.61058045250946    8.51697979220810    9.75820878867579
H         5.55160160236792    7.29839194020365   10.67458706616233
H         5.36793529505876    8.93958524249321   11.32500273305946
C         4.01533329243980    9.84119316790790   14.95650249250096
H         4.04368294939951   10.31891325134255   13.98701619620651
C        -4.61597356002371   12.67741321470088   18.64215784174769
H        -4.37236283378878   13.07271416198075   19.61617269862863
C        -6.23863305530652   11.79157612133278   17.10225257543060
H        -7.25533050064832   11.50628321401788   16.87743594656272
C         5.02212875180675    8.41537853693835   16.59804787676261
H         5.82871867470360    7.76782459936982   16.90693532566550
C        -4.54299850530864    6.48246045802608   13.71295217745510
H        -5.59929143246608    6.53839347197391   13.49285576076280
C        -4.23331364397855    9.89922391829210   12.05245088378155
H        -4.48654152819098    8.88227636119734   11.79598108932705
C         5.06879356478253    9.03740662039933   15.36174567018297
H         5.91374016832824    8.87851654904090   14.71105886627185
C        -2.27109297785152   14.56386577947876   15.38550103166939
H        -3.33125926919754   14.61170246592871   15.59510624913694
C        -0.15731305149685   15.64797872828790   15.04793559554288
H         0.42658836338032   16.55383148089824   14.99296205010163
C        -4.47407370568089   10.93007174994042   11.15666283101497
H        -4.91979627668258   10.71569317078311   10.19756876101165
C        -1.51509716281254   15.71974500873360   15.31882961909591
H        -1.98576740511877   16.67831672502469   15.47532111113726
C         0.45238094432128   14.41925540628613   14.85047887680215
H         1.50908282278046   14.36704161179099   14.63838437226164
C        -0.29263607369161   13.25699313902176   14.92404396433812
H         0.17196333488044   12.29065258098829   14.78938754620085
C        -3.56796701842455   12.51830573892632   12.71154081981506
H        -3.30011163525939   13.53267792132236   12.97287468383142
C        -4.14141492305790   12.23547184286491   11.48461386414332
H        -4.32804256562754   13.03395610610703   10.78303109101263

