21
CSD_code = EFOYOQ | q = 0 | S = 0 | Stoichiometry = C4H10Cl3S3Ta | MND = 6
Ta        1.71151364947475    7.84700574688117    1.63305645501977
S        -0.51877345392775    5.76013455152089    2.13864412319010
Cl        2.34105990874600    6.49825890787539    3.36746933874553
S         3.07786163812590    9.61472939087538    1.87187991174784
Cl        2.60951035797234    6.57750978837180   -0.00332916686652
S         0.01733421016591    9.02918608870264    3.67465274752154
C        -1.39298226427487    7.86887801289528    3.81484711257811
H        -1.89139339989506    8.10274888167115    4.75648464316539
H        -2.04923708337317    8.15002139146104    2.99143959453027
C        -1.05320350270921    6.39100056486637    3.76760062408940
H        -1.92820117400926    5.80905651347447    4.06133146660911
H        -0.22681899255152    6.15011914160448    4.43567460598691
C        -2.02027113000118    6.03593111393227    1.15590936799319
H        -2.09698824434563    7.08402211034326    0.88339543684938
H        -2.88677564130420    5.70085355606163    1.71708703498316
H        -1.90552519741921    5.43660143158759    0.25873113586590
Cl       -0.04119438702619    8.66309779626536    0.43244750710480
C         0.86096537276924    8.76786834708088    5.25839516777719
H         1.30301376061622    7.77671663475798    5.28535909365346
H         0.15658558940271    8.92139831902615    6.06993846100014
H         1.64651998356325    9.51666171074138    5.29428533845613

