33
CSD_code = EFOYIK | q = 0 | S = 0 | Stoichiometry = C8H18Cl3S3Ta | MND = 6
Ta        4.24079038491829    2.13426357993824   12.59507752944087
Cl        2.22201727059596    2.88906849374531   13.34695428488261
Cl        6.40666859318623    2.64420921233686   12.07678824015888
Cl        3.57024700279107    1.63792181060547   10.49160391890558
S         4.00483706100301    5.08252175510841   11.85821243903073
S         5.20119615385641    3.48056272728048   14.94466184231051
S         4.42545645839358    0.14126838241266   13.61966525429327
C         4.17557301273162    4.56904585907973   17.28799630885563
H         5.10659091847673    4.25446880014060   17.75317029241366
H         3.39012683409335    4.54761899301848   18.04014013423479
H         4.28121022993650    5.59437020751337   16.94258338646990
C         3.80876370243302    3.62665403369111   16.15600063176571
H         2.94417271723500    3.98817693466513   15.59701099064482
C         5.41748746920727    4.95333941390474    9.57033078619615
H         5.40990734316456    3.87282202382942    9.70127774579336
H         6.28291904919241    5.22148138708866    8.96847491083572
H         4.51528971960716    5.24652429801516    9.03749414219918
C         5.48884557680984    5.65282953396562   10.91841300921918
H         6.36421312441025    5.30258922828170   11.46836151230741
C         3.54734617250613    2.21442200217332   16.65164854839912
H         3.31625812719198    1.55169920251966   15.81869594456690
H         2.70337499032150    2.21623908518248   17.33691923571424
H         4.42050176039861    1.82581553317320   17.17008408323003
C         5.49934048469285    7.16411612888663   10.77422231371970
H         4.57640890500483    7.50570821864394   10.31109714869292
H         6.33370605135967    7.46056677228587   10.14183428648936
H         5.61504800104977    7.66016642362010   11.73525704181604
C         5.42680044340804    5.18187251964686   14.30670325159406
H         5.66289727463112    5.81233837878666   15.16397832753449
H         6.31709244642618    5.09782552137639   13.68259857616406
C         4.26204497816820    5.76868635411370   13.53157105566448
H         4.39606994666323    6.84529749758780   13.42540092120927
H         3.31419779613618    5.58540968738311   14.03767190524763

