21
CSD_code = EFOYAC | q = 0 | S = 0 | Stoichiometry = C4H10Cl3SSe2Ta | MND = 6
Ta        2.19056065460475    4.50282538788856    5.50927354315324
Se        4.32023754974757    6.62115736243126    5.14516851151077
Se        3.77040687451224    3.26934968266370    3.59282695188943
Cl        1.56977303651533    5.94659018703701    3.81780721320009
Cl        1.37489389176798    5.75350092910652    7.18746379699527
Cl        3.89970807907385    3.58489963181506    6.75102710886229
S         0.78223219987663    2.78409757054334    5.16900036481864
C         5.31624881219689    4.48822018044151    3.37707138829767
H         5.99107055503318    4.22770839918257    4.19571280184186
H         5.79476355542483    4.22330044024344    2.42888072548807
C         4.96614306101868    5.96420002556144    3.40005393471080
H         4.16670492030999    6.20062236047875    2.69597754252151
H         5.84775367414593    6.56092251727687    3.15041268376646
C         5.96276537390994    6.32342600120092    6.16617903671881
H         5.87766695368310    6.91717492568409    7.07290158476952
H         6.82460953200306    6.65145580633840    5.59037795028856
H         6.03738635573638    5.27176061586977    6.43075201393499
C         2.94562837803135    3.52877414016210    1.84546722501832
H         2.13935752052913    2.79998918378396    1.78785348655471
H         3.67258877677220    3.34649723100879    1.05635495570659
H         2.52990024510681    4.53202742128266    1.78693717995273

