36
CSD_code = EFOZOO | q = 0 | S = 0 | Stoichiometry = C14H17N2O2Rh | MND = 6
Rh       -0.85296824619019    2.46428158323669    5.12754424349000
O        -0.90009869860284    3.55011034962112    6.82967031872541
O        -1.51974770513029    4.85493200064375    8.39941463714778
N        -2.55729062576770    3.30241029867227    4.64938418361081
H        -3.01253399633810    3.07023919812290    3.76700253783728
N        -1.74244416131063    4.37636287108897    7.28879844288995
C        -3.24114288950311    4.22210648294232    5.31576304075802
C        -4.44966071451800    4.73760951508383    4.75395434935757
H        -4.74837156894132    4.34919519067030    3.78924745387328
C        -5.21296805649276    5.67346905591782    5.37963880713670
H        -6.11839296248557    6.03126002461254    4.91213052416548
C        -4.83145694961518    6.18163802200939    6.63395223692660
H        -5.43906620334784    6.92487604543511    7.12423427816103
C        -3.68857490389605    5.72376154278861    7.21589368460892
H        -3.36544007338721    6.09158145006826    8.17745442466767
C        -2.87095332055542    4.75336133186805    6.59334834840125
C        -1.00531150296407    0.89480184983607    3.71502537896618
H        -2.05651873398862    0.71237679226228    3.48951926111920
C        -0.40720239150212    2.00777653344163    3.12123575931110
H        -1.01478255878381    2.60910510257569    2.44302514258571
C         1.07523650232499    2.15270347110538    2.85703622047235
H         1.26566732862071    3.19598020321106    2.59360792640897
H         1.34899336640188    1.54462539950117    1.98796499136082
C         1.94986596616521    1.77589424697277    4.06699739565143
H         2.22991719337841    0.72311583061757    4.02520447618840
H         2.87267448555260    2.35728901598624    4.02781132745589
C         1.24674953427512    2.05118494312333    5.37874615877277
H         1.65148715946191    2.88222400538975    5.95499749001095
C         0.50577242509244    1.10314976923496    6.06094053841196
H         0.39366493078426    1.22668706362679    7.13798801152787
C         0.24197841121553   -0.30280166501289    5.57137201278866
H        -0.52719343186885   -0.74365157709751    6.20948400907844
H         1.14828063902175   -0.90543018388889    5.69246314725723
C        -0.23525926138071   -0.35093496029210    4.10765261397273
H         0.61135454985122   -0.47304475108596    3.43165647394671
H        -0.87936353557001   -1.22234605227892    3.97704015295419

