47
CSD_code = EFUFOA | q = 0 | S = 0 | Stoichiometry = C16H23BMoN4O2 | MND = 8
Mo        0.91957526557571    2.34416881942491    8.75077590598451
O         3.07247199248764    0.22469870823455    8.24067305418801
O         2.40873793728650    2.53289543227322   11.44976453824809
N        -0.50700927855591    1.10195473598239    9.67863838247162
N        -1.66955726573481    1.76062689547118    9.71048144043231
N        -0.44131164508431    1.94214137710543    7.14334179756431
N        -1.56549949437760    2.59691210524370    7.45423498122577
B        -1.58399842972945    3.07495190939059    8.91221888644775
H        -0.42797779378429    3.50617641760963    9.15576150890744
H        -2.44968404052241    3.84475899501798    9.14876368335220
C        -2.60302669909060    1.02331184187965   10.32466123068762
C        -1.99354119171503   -0.16295234226523   10.71665576390516
H        -2.44971626878825   -0.97667934630402   11.24310145943912
C        -0.66837641300472   -0.07093402091266   10.28625994995718
C        -4.01045323219437    1.46594128667985   10.50354964210491
H        -4.06478571629884    2.55125694396210   10.52464624856216
H        -4.41392681866592    1.06558292306014   11.43026872668288
H        -4.62878321374636    1.10474421777291    9.68080757646384
C         0.44830783847056   -1.03935153218626   10.43615244293042
H         1.33228657092601   -0.52524190703820   10.81157845982312
H         0.70263185100524   -1.47760362958136    9.47162107603108
H         0.17079641279926   -1.83401211960014   11.12249705845652
C        -2.47012318403520    2.46633468565049    6.47160281465390
C        -1.88211092246793    1.70003486041989    5.47745868094991
H        -2.31793110295986    1.40634574100906    4.54395719460532
C        -0.60357700195022    1.38095449046697    5.95111575413555
C        -3.82247361250069    3.07944257199801    6.52848583840478
H        -3.74719821697742    4.15333061226737    6.69358767052232
H        -4.39886563773198    2.65535613986076    7.34966442935539
H        -4.35072318262368    2.89950708940799    5.59621677148468
C         0.44915438490172    0.55528046347405    5.30232917465717
H         1.27458547961584    0.40023581020197    5.99419748287310
H         0.82393724343301    1.04471242299677    4.40370824155698
H         0.04085293458498   -0.41090550758693    5.01067157903211
C         2.23713686565706    0.99610753773125    8.41669160447378
C         1.83948317142193    2.51285451886728   10.44444575837388
C         2.26473202738119    3.13415635350072    7.02043261382354
H         3.31119788344357    2.86087790105431    7.12270454680310
H         1.90416962516222    3.07420091389293    5.99669133759096
C         1.74704721565953    4.16490071002049    7.82250798466070
C         2.27241326973111    4.17708887454920    9.16048213367876
H         1.91893781205913    4.98528759664174    9.80130324468220
H         3.34411923367697    4.00856881506242    9.26428673991117
C         0.85738345994843    5.25353446600766    7.28538507012261
H         1.47677353016246    6.03900185739080    6.84499516331961
H         0.25214058255852    5.70503747841178    8.07148140988427
H         0.19687777457977    4.87340588547978    6.50424294656957

