33
CSD_code = EFUGAO | q = 0 | S = 0 | Stoichiometry = C22HgN2O6S2 | MND = 8
Hg       12.49722978156176    2.11944247347907    3.84493560761170
S        11.40883489708463    4.34251855804064    4.32054138142084
C         9.97124142611178    4.18795049759902    3.50557780517089
N         8.96564990285674    4.11895844034616    2.95507676212712
S        13.84345902240894    0.10260356312007    3.60999805621620
C        15.08673512764538    0.73772051329135    4.52871002016399
N        15.95692763119810    1.14635223478537    5.15598732015452
O        12.53881363721568    3.08115606559877    0.75809713227539
C        11.51015172245111    2.36520248882805    1.14597017988052
C        10.39925490579155    1.89539957375912    1.30501772957584
O         9.43424643309475    1.17886982216286    1.82863662511819
C         9.45701083432840    1.04397812180207    3.13255805106871
C         9.90600798387782    0.91751490650472    4.25611847257860
O        10.06546667228123    0.84678197315074    5.55641249656779
C         9.71643756066312    1.95371670667286    6.29615717545067
C        10.79854604021550    2.53989931004847    7.11188772278768
O        12.01530619129216    1.90703061398537    7.02094797363354
C        13.04836289316684    2.63323842938598    6.66102180851376
C        13.94581625580914    3.44541791353555    6.56132221984693
O        14.92242619446253    4.14943597582144    6.04062137157284
C        14.88553918592554    4.29530249021858    4.73755205139589
C        14.64160022382605    4.07304798992325    3.56872547047089
O        14.46426459818393    4.12050155705463    2.26862855328330
C        13.54156069271471    5.01908470993026    1.78865369940237
C        12.47010998757387    4.44194885815085    0.95265791735563
C        10.53140115848706    3.63916821548726    7.87219032664900
C         9.30781250456358    4.10141340645318    7.79054340989510
C         8.36337259857115    3.59226365822012    7.07875528613029
C         8.48266656620230    2.53035922982907    6.32053035741715
C        11.50844552316223    5.26434719408847    0.44850339604721
C        11.61482973975090    6.53058589517938    0.76806776848397
C        12.55062093827417    7.03249776328322    1.49623179327011
C        13.54235116922642    6.36089085026998    2.02816405848526

