38
CSD_code = EFUGUJ | q = 0 | S = 0 | Stoichiometry = C19H15AuBrOP | MND = 2
Au        6.56435116541537   -0.94035494285032    3.23734659715266
Br        8.86477808415294   -0.42836954702252    3.03457407603227
P         4.40057027087252   -1.51315919179711    3.63126205734261
O         4.63252748339127   -0.25605622415603    1.65027804221105
C         3.22294667554662   -0.17255554142460    3.93784896207309
C         3.13959118630015    0.88062566175660    3.00319004975264
C         2.30382653052768    1.97375128497693    3.24109179949498
C         1.54257748796439    2.01727339328676    4.38864905592136
C         1.62829893840484    0.98513497384860    5.31847140097877
C         2.46969249368446   -0.09078386273786    5.10655531402556
C         4.01126263228793    0.78049803865022    1.86169753343321
C         4.27884996549454   -2.46967026710896    5.18498256907689
C         5.08521657545726   -2.03823399334933    6.23586222603099
C         5.08736523343238   -2.71417425494682    7.44046463844799
C         4.29231066035210   -3.83876900575382    7.59866914827644
C         3.49786475638676   -4.28097893215460    6.55356881666095
C         3.48874058287848   -3.60202026858114    5.34751232455558
C         3.59435460116155   -2.61433956653343    2.43809659331537
C         4.39201757796164   -3.53624028253909    1.77087228965745
C         3.82540519419079   -4.40081062438779    0.85270019555734
C         2.46440578889315   -4.34396869559844    0.59842704762596
C         1.66942298905998   -3.42396247090781    1.26288863101905
C         2.22884888070690   -2.55579273149978    2.18320080817860
H         2.25973383389158    2.77134794792807    2.51423911010903
H         0.88513799600489    2.85310243148526    4.57313609202289
H         1.03266267637187    1.02467132303620    6.21828674037864
H         2.53381736173157   -0.87779322518546    5.84451746312727
H         4.16006386831910    1.66823699534353    1.23490945474227
H         5.71206216451296   -1.16500649045197    6.09347656791274
H         5.71391616193728   -2.37252860241919    8.25074841386211
H         4.29830762715543   -4.37529206532158    8.53564818883846
H         2.88386069282008   -5.16113853176031    6.67653505742507
H         2.86964575180007   -3.95060466159476    4.53218105424761
H         5.45515628451847   -3.56245029739802    1.97140136217006
H         4.44523891770296   -5.11483300452208    0.33123919066775
H         2.02187084112759   -5.01595672007009   -0.12171553205630
H         0.60870718501465   -3.38041129615715    1.06237362936366
H         1.60959288257937   -1.83638675207793    2.70291303038617

