31
CSD_code = EFUGOB | q = 0 | S = 0 | Stoichiometry = C11HBBr9N6O2Rh | MND = 5
Rh       14.45676910430146    1.90408769970419    6.46281996725388
B        11.86859419615173    0.03775480064382    5.57721281756224
H        11.07748993668930   -0.75526083556140    5.23058838650302
Br       10.92682153377439   -2.68044152649914    7.32046180980382
Br       13.59401148977398   -3.06998595300920    9.76410883596273
Br       15.87469325269344   -0.28367622594413    9.11437334074466
Br        8.49599144167056    0.66295420516959    5.47590447781977
Br        8.33889247902571    4.12956288680057    6.66062592091291
Br       11.91619445791999    5.00127305655950    7.29193634726028
Br       11.40108607394650   -1.01299063848925    2.41585065584627
Br       14.46049174941572    0.01258953254424    0.73510804805230
Br       16.42506984759017    1.70623078703443    3.31582002621383
O        15.22430931141328    3.12592581027074    9.07909435340152
O        15.57531613131549    4.42227801403014    5.30761141242235
N        12.66894547856209   -0.48156431035403    6.79565858788461
N        13.80319613055632    0.09460180279881    7.23356165333213
N        11.20882463852558    1.36449276827876    5.96926617859643
N        11.98275796363611    2.36957780563855    6.38828326469956
N        12.89238548116594    0.31985732036269    4.45188469539682
N        14.04734866621073    0.97969484376960    4.65375388079623
C        12.40890368506685   -1.57727815232979    7.53449842215881
C        13.41791544694018   -1.72815264938522    8.47708580068229
C        14.27212472561718   -0.64763741336351    8.23644273534485
C         9.91726026685186    1.75157811841701    5.98386469364039
C         9.86006526567372    3.06566936498872    6.43267038077248
C        11.20164662455461    3.39779525262703    6.67170259412235
C        12.82767785437442   -0.08801236636808    3.16984094574729
C        13.98847378371886    0.30793977442959    2.51780927791139
C        14.72278459554084    0.97268819773289    3.50471028211795
C        14.95158016553321    2.61702787614369    8.09991930474687
C        15.17477822178382    3.43792015335403    5.71103090229203

