38
CSD_code = EFUHAQ | q = 0 | S = 0 | Stoichiometry = C19H15AuIOP | MND = 2
Au        8.47056695127994   11.72599225449578   10.96635133231861
I         5.98657732748618   12.23762259294235   11.23013406130569
P        10.63117542733389   11.16191492973429   10.50680586915594
O        10.40969422754657   12.44440514206667   12.46147177486336
C        11.80428138305889   12.49756687808791   10.17121508355850
C        11.88036301146760   13.57346876668076   11.08113370876229
C        12.70377568089921   14.66958367451381   10.81386472567278
C        13.46112529665321   14.69257504742388    9.66355895552352
C        13.38402233768234   13.63688777977606    8.75907769251086
C        12.55332874635840   12.55898541694760    8.99820453298804
C        11.01012177111997   13.48945276075366   12.22353733912660
C        10.72526360537307   10.19107643956627    8.96006365586889
C         9.92433267908615   10.63290368752335    7.90937559786178
C         9.90023702167691    9.94694410250739    6.71074042589612
C        10.66610979373586    8.80128049265397    6.55951408902478
C        11.45473959477358    8.34898741803390    7.60473122066388
C        11.48711787867770    9.03872576684945    8.80412111091353
C        11.44529665028284   10.06047856037656   11.69329748401108
C        10.67212766150580    9.05253299137038   12.25806259786409
C        11.23617118528413    8.17899862357609   13.16881369310505
C        12.57026606895304    8.31323538713503   13.51907588766748
C        13.33990782138642    9.31938064359713   12.95806216627970
C        12.78272386195072   10.19676710957987   12.04496058242482
H        12.74176236267298   15.48491124395191   11.52116398263092
H        14.10926546718970   15.53041456222851    9.45654181861283
H        13.97780092886706   13.66059029915412    7.85746193466586
H        12.49473173712808   11.75391898168118    8.27945284699309
H        10.83538203984062   14.39194118126329   12.82148548106727
H         9.32050081187411   11.52315226944483    8.04658373863661
H         9.27939439241048   10.29702045650201    5.89958417867050
H        10.64249704755551    8.25670255875220    5.62748350360516
H        12.04634159652182    7.45289484357388    7.48700187516212
H        12.10293187320877    8.68386732180614    9.61934670842342
H         9.62937320707277    8.96356447612759   11.98113834163491
H        10.63533650381468    7.39754383151984   13.60962279118321
H        13.01090426150870    7.63392661890673   14.23348165631224
H        14.37934846059971    9.42306063283157   13.23361531452573
H        13.38270332616172   10.98312425609111   11.60626224048928

