63
CSD_code = EFUKIB | q = 1 | S = 0 | Stoichiometry = C20H28HgN9O3S2(1+) | MND = 5
Hg        4.05393529037633   31.00906334561042    7.64097474057981
S         5.80619165510876   32.81130636851263    7.89383422254634
N         7.86725377515829   33.43921545492768    6.43225975734775
H         8.34890808258745   33.57294500412992    5.55710361983291
H         7.99109517348722   34.14201640148657    7.14314255027364
C         6.75418183023116   32.68848388836206    6.51349350854193
N         6.50038899033260   31.84960413181435    5.49848850175464
H         7.18012104710572   31.78941463615590    4.73670492217790
N         5.37767255222045   31.09612725019793    5.40339074453497
C         5.30682501275212   30.25168948689282    4.43245421181127
H         6.17214095468891   30.10285495208375    3.77730618272467
C         4.13896850509807   29.48122297276333    4.16492788661558
C         4.22556112104893   28.28017121348925    3.44196672851527
H         5.18997722336347   27.94610621318171    3.08520229599386
C         3.11908653455938   27.50653104545126    3.20984030775322
H         3.23916795416691   26.57938379113254    2.67462854440071
C         1.83878512470571   27.90813103398277    3.65465310497551
C         1.75006206478512   29.14858000683387    4.32523476739176
H         0.79129231441218   29.54008790486293    4.61735576250638
C         2.86280921358371   29.90312573021798    4.58102635869521
H         2.75270224394521   30.87628891830241    5.04163672974044
N         0.74959055696704   27.13678960645868    3.44246903484717
C         0.79753941767167   26.01722015755125    2.52957181590522
H        -0.21451199035550   25.69854028188734    2.29558359245134
H         1.33176998691483   25.16835433638169    2.96669437879484
H         1.28566146891838   26.29635327545837    1.59415679775571
C        -0.53761411565622   27.48963712041034    3.99528588708154
H        -0.43157586726376   27.82720864724608    5.02588445812516
H        -1.18095994069321   26.61255096265809    3.99174461958839
H        -1.02532649041881   28.27895193156059    3.41550134566982
S         2.38208542293580   29.11673193899633    7.83483910679872
N         2.33521939673264   26.74408195996467    6.75172437492112
H         2.73037376713394   25.84993838990155    6.50814017776806
H         1.37024220329020   26.77000924339977    7.03834589971755
C         3.10721175873742   27.77932854324871    7.12310837875174
N         4.42266250051443   27.69626944913308    6.87682362010035
H         4.77919888096633   26.88766124711115    6.36194573129656
N         5.30787129055565   28.63401623251937    7.28985008668681
C         6.54111656166015   28.49455841982934    6.94594503895174
H         6.83109152713798   27.68969694237674    6.26159540354869
C         7.56919449760820   29.35376599061392    7.42878851996731
C         7.41087477678678   30.10224321616455    8.60876688788583
H         6.50837405125190   29.97458075927901    9.19390727135970
C         8.40212321532166   30.92779970838899    9.06443219306121
H         8.25156574862182   31.44417897244313    9.99649190437589
C         9.61359126105271   31.08196226947672    8.35376750171681
C         9.77879095125384   30.30555001023337    7.18417748190097
H        10.69040255379901   30.37409352256149    6.61455989353911
C         8.79427717851020   29.45802613626563    6.75076145922778
H         8.95183676413855   28.87616259528872    5.85334401422018
N        10.57582918445343   31.93265704350880    8.77217273411676
C        10.35286881918723   32.82931955942497    9.88265205566154
H         9.36233890656206   33.27941023935558    9.81805014186923
H        11.08958145920790   33.62884184303856    9.85024170333551
H        10.44393773411287   32.31411693208128   10.84360852608499
C        11.90316238465153   31.89599137161710    8.20202354569216
H        11.92610537164709   32.35934633904415    7.21099701288465
H        12.26282784715191   30.86911102983446    8.11947371767742
H        12.58827251626021   32.43804634206938    8.84834521283639
O         2.86913756302024   32.08962655512833    9.08785551179161
O         2.55798875885739   32.35377946822407    6.99968815321691
O         1.36268883834101   33.42390327195768    8.39657948027034
N         2.23295661862645   32.64983839187443    8.17617987947305

