74
CSD_code = EFULAU | q = 0 | S = 0 | Stoichiometry = C32H38ClN2Rh | MND = 6
Rh        4.34283917930992    0.12198359003365    2.16301744085411
Cl        2.15074366690137   -0.53921462686097    2.05041937670643
N         3.39896958713457    2.81349375342105    1.37344865584959
N         4.13252190249036    1.49218910073866   -0.38680288839466
C         3.88042065822408    1.63547240028037    0.92711573978618
C         3.01037771949726    2.86290463491261    2.79227213455185
H         3.37985791480110    1.90441487568149    3.20707113180461
C         1.49083633592782    2.82598189932035    2.94715116924946
H         1.12119443914395    1.87953654015014    2.55800280381372
H         0.99151645325493    3.63346498110374    2.42093826320610
H         1.23866564710161    2.88476029315197    4.00275842776560
C         3.69371313879550    3.99244135752534    3.57160737852224
H         4.60704907352904    4.30804943071554    3.07233768629667
H         3.95594155431510    3.63688426789435    4.56507068684096
H         3.05549806068404    4.86191694409456    3.69928812819789
C         3.19538786017884    3.91280279450513    0.53175779963510
C         2.62228129317469    5.10297178859156    0.92971606123900
H         2.23216735739390    5.24007405994435    1.91926686805713
C         2.53288301698864    6.18469496375790    0.04752479626926
H         2.07962018306879    7.09897085542967    0.40166558704195
C         3.01736579211404    6.10650755633307   -1.22677534857031
H         2.96706879510253    6.95219718419105   -1.89546092360061
C         3.58614832325007    4.90367723696115   -1.68857830200932
C         4.08401072973837    4.76134071593026   -2.99921377963570
H         4.02968221714157    5.60633153507057   -3.66872595481065
C         4.62367892085548    3.57450204322221   -3.40847958382374
H         5.01630269682755    3.47108085616140   -4.40907263181061
C         4.66556246653512    2.46777881228565   -2.55556710050510
H         5.07913072383300    1.54866150919660   -2.92810735478821
C         4.16232115888220    2.56291960465728   -1.27558349279615
C         3.65314576824686    3.79689798586352   -0.80657931341807
C         4.40968858845041    0.15412724036281   -0.89793763837017
H         4.16740924972027   -0.55163808596555   -0.07903669413085
H         5.47982562614492    0.07900072188424   -1.10521399015421
C         3.62622034336608   -0.23595132281459   -2.12967204568294
C         2.26872692939511    0.06952392117862   -2.27488102021029
C         1.46832051231641    0.75476415983541   -1.20940643936752
H         0.40781207107718    0.58750173761391   -1.38379250077051
H         1.63629265084922    1.83202967098988   -1.21997200803394
H         1.71116295858134    0.37099940276808   -0.22050295129069
C         1.61864680659694   -0.29112412595168   -3.44683903900148
H         0.57330959494421   -0.04087824688626   -3.56103761564589
C         2.26194533162853   -0.97014216603945   -4.46875406518975
C         1.52563421208379   -1.33305808285614   -5.72231644506401
H         2.19311655458479   -1.78920435852090   -6.44918066495003
H         1.07536124526003   -0.44722061131228   -6.16799215514881
H         0.72411146569653   -2.03652411482381   -5.49889311497548
C         3.58806517990304   -1.32172282365247   -4.28181660139110
H         4.10137640704478   -1.88242452220441   -5.05057688278730
C         4.27531092392929   -0.97213172432946   -3.12893163448622
C         5.70628877087612   -1.41477195299703   -2.99032045527201
H         5.98254056495491   -2.04517732003732   -3.83189096342076
H         5.84935681640469   -1.98859658978309   -2.07576177705147
H         6.39248986623349   -0.56637118175278   -2.97362063382957
C         6.05963696683108    1.13570353876416    2.89127925150248
H         6.01833176367010    2.20229646626458    2.66955359113013
C         6.26450352566386    0.85214847003065    4.36210962183494
H         5.67787544343837    1.57886775770366    4.93043827710711
H         7.31711133348812    1.02107941827230    4.61728050686084
C         5.84254035141135   -0.56833706375611    4.78134804041447
H         6.69074881442104   -1.25151727908038    4.71780588296823
H         5.52447123702258   -0.54652230538802    5.82576807460200
C         4.71257949747558   -1.10697796218942    3.93292950792260
H         3.75056827661676   -1.18625223512192    4.43855686013301
C         4.90920207640156   -1.86790762566395    2.80221977053350
H         4.10481200519655   -2.53268874809935    2.48704900987413
C         6.25777439102499   -2.22104986564498    2.21879745657303
H         6.09491166845961   -2.66212789256051    1.23190008510627
H         6.72733523980264   -2.99060993803136    2.84136774968648
C         7.20005072701612   -1.01004996295142    2.07815766799943
H         7.82542309653436   -0.90981386844225    2.96676402991375
H         7.87087491193930   -1.18499625315222    1.23407453934990
C         6.45381275050129    0.28934268753237    1.85433732001910
H         6.66472061905079    0.76351409276986    0.89682663081980

