67
CSD_code = EFULAS | q = 0 | S = 0 | Stoichiometry = C27H28BCuN9P | MND = 4
Cu        7.37382875051738    8.76584226344953    2.20715212717221
P         9.14240316047968    7.46270922094559    2.14677243818145
C        10.11015521057104    7.46750769425727    0.60766984531915
C         9.40079767229240    7.66027757458843   -0.57384862584016
C        10.05978101487806    7.68072110216311   -1.78762798303927
C        11.43967766429595    7.51940489905735   -1.84635730272235
C        12.16192181395599    7.52909518410062   -3.15803365351012
C        12.14255564440720    7.33607971090952   -0.65939251859026
C        11.49131031304919    7.31072905539850    0.55884737472799
C         8.79760919524363    5.69934573463427    2.42036591304653
C         7.88363655188789    5.40531822884522    3.43094406985743
C         7.54197574247935    4.09720200834519    3.70187414037296
C         8.09239505095236    3.05262168985525    2.96241983871342
C         7.71990131210581    1.63550105711142    3.27088010261041
C         8.98985718793428    3.35537182044661    1.94657480298182
C         9.34261909505495    4.66495191986574    1.67099275393317
C        10.39807558504595    7.83347114978876    3.40815740411558
C        10.67849070181725    9.18263161617031    3.61571008476430
C        11.60937161070227    9.56328797310493    4.55912477540178
C        12.27361899676100    8.60846015145110    5.32584742794136
C        13.27148974109063    9.03660029125510    6.35693601193899
C        11.98000519642453    7.26661035635485    5.12079509641399
C        11.05068328836466    6.87519710179338    4.17286115079025
C         3.30415102323700    8.43435598881443    2.27953540906814
C         5.52092842153604   11.85884961285337    0.31533572203225
C         5.62043236053723   11.38961861506288    4.80569805769361
N         4.49632259679539    9.03736041869568    2.31303510388519
N         5.42524825706167    8.07847448378339    2.18835250168265
C         4.75484183666446    6.95181177137977    2.08634652163172
N         3.42783059860885    7.12903638754381    2.13921563810402
N         5.71098986705357   10.90989931196221    1.23657676566540
N         6.85649507791828   10.28512538770299    0.92651017189735
C         7.29923329244400   10.88338411241876   -0.15829151468808
N         6.49514300933514   11.87083737698821   -0.57335716304790
N         5.76346203075256   10.65374475363427    3.69918762155466
N         6.91354797824541    9.97587135382989    3.82402176730925
C         7.40561008908797   10.33186490234785    4.99034922935307
N         6.62951743166261   11.21302756059154    5.63596500464411
B         4.86743737030102   10.51980241092655    2.45952195261059
H         8.32807663272378    7.79989460759955   -0.52067527446631
H         9.50091466097819    7.83114770412371   -2.70041490061781
H        13.09015808346440    8.09184133846752   -3.08289399746356
H        12.41330084035122    6.50959597644327   -3.45206156129492
H        11.54566486809070    7.96624809852210   -3.93940468921416
H        13.21617560733995    7.21405320837452   -0.69341515477589
H        12.05149520396785    7.17236590015863    1.47321203453271
H         7.44566041237645    6.22197669302193    3.99152057130327
H         6.83458383975541    3.87523751008923    4.48826632623972
H         6.63944974883733    1.53321013459084    3.35352985306932
H         8.15524227715125    1.33370263877955    4.22368664097096
H         8.07955890103764    0.95949921999209    2.49945916150676
H         9.41844672232417    2.55551203046115    1.35910884413444
H        10.03869528613978    4.88279572390658    0.87315257354966
H        10.14788562485931    9.92161763611237    3.02819517409711
H        11.82392251569875   10.61107416035250    4.71467073127775
H        13.75845031311052    8.17765228067956    6.81130452891605
H        12.77827322382149    9.61031766845809    7.14102608023051
H        14.03163743809065    9.67481655115781    5.90890064975849
H        12.48407621097876    6.51476615340502    5.71177160715680
H        10.83136626860650    5.82634224825227    4.02867682905154
H         5.22770091564894    5.99682849502808    1.97406503356456
H         2.37447702009206    8.95873416636915    2.35852652307101
H         8.20909251252709   10.60621526860356   -0.65162022248503
H         4.67844514974500   12.51892606529667    0.31154412282232
H         8.33031179005427    9.95268431108268    5.37693591242780
H         4.78590213668302   12.03638132932844    4.98109792658075
H         3.90268405398089   11.19836062891991    2.55026661208627

