76
CSD_code = EFULEW | q = 0 | S = 0 | Stoichiometry = C24H40BCuN9P | MND = 4
Cu        6.58860573406007   14.63948275042190    5.21423129989169
P         7.44717349077971   14.75079412062446    3.17161905049449
C         6.33704475679680   14.07671321528337    1.82611312056240
C         7.00598679440453   13.38512617816839    0.63915124588179
C         5.94358909366957   12.98547914152529   -0.38486676380742
C         4.91057100919052   12.05602855478093    0.24523397496627
C         4.25445877340965   12.72498949344212    1.44993781184954
C         5.31156843008091   13.13877069028191    2.46890853129910
C         7.80811414232289   16.49074690527204    2.61531916792081
C         8.30984108345804   16.66919692916093    1.18463176030027
C         8.63015779803220   18.14187325623550    0.93146700254822
C         7.39767577843220   19.00829793648495    1.17413746588670
C         6.88169712631348   18.81992594114492    2.59838179291651
C         6.56621549559067   17.34990783087013    2.85923578128269
C         9.07226819333468   13.85486891813026    2.99820044282700
C         8.87157009408305   12.46158848123151    3.59921715020294
C        10.17503367604681   11.67065753650930    3.63357163136274
C        11.22581410726799   12.42470176655397    4.43966922932462
C        11.45243603933337   13.80377018897173    3.83197612926549
C        10.15006233240409   14.59944462260883    3.78702635014873
B         5.33268728250587   14.59788394619144    8.03217952320296
N         4.40637407227659   15.29776378854399    7.02802836423970
N         4.72165188383942   15.42149072320653    5.73095032769689
C         3.70309627354944   16.04943374089524    5.18444030196837
N         2.73619206698314   16.34286479746895    6.06361918880090
C         3.20660082595178   15.86136652426344    7.19735806374873
N         5.57778038768630   13.17634260217320    7.51040462902860
N         6.12816920285506   12.93295707371003    6.31210388183965
C         6.14483373157613   11.62228429936618    6.19829407707747
N         5.63348910967411   10.99717681605813    7.26654032871187
C         5.29096331152800   11.99261221211171    8.06016353836750
N         6.67380084192786   15.34229485950186    8.02422623338426
N         7.40446051948962   15.49876693100630    6.91119999520032
C         8.45898651278087   16.19192441330477    7.28245075345208
N         8.45366634991593   16.49465390519514    8.58697399042368
C         7.33097318572666   15.95205492290376    9.01526723375617
H         5.79105853451088   14.95316180575555    1.45159686882055
H         7.52485404876660   12.48546869698410    0.97336465381098
H         7.73754257018603   14.04298755533089    0.16704916443827
H         6.42081069824542   12.49041192865056   -1.23336774621653
H         5.44341146553643   13.88161595054050   -0.76025245228289
H         5.40159856954238   11.13445330641988    0.56613546323718
H         4.15162085138556   11.78992050899810   -0.49299016876688
H         3.54026015298116   12.04175794363743    1.91302605249914
H         3.70376414532812   13.60867138142485    1.11836794900282
H         4.84539182391731   13.64097853408303    3.32174289770925
H         5.81604543234009   12.24882880019482    2.85108065604284
H         8.58217534988955   16.84144329929010    3.31049723706356
H         7.54005500033661   16.35014493488083    0.47962065510877
H         9.20314701626577   16.06429925638672    1.01427210450812
H         8.98018124169371   18.27146963912428   -0.09493257926278
H         9.43322569772145   18.45920777920869    1.60083538479487
H         6.61456068501943   18.72948378880488    0.46506404995464
H         7.64325744125472   20.05810473981304    1.00330939029064
H         5.98613745348643   19.42469454751886    2.75334057707998
H         7.64051748960122   19.15903425972373    3.30713158064683
H         6.22896442870648   17.20768791432263    3.89017357001651
H         5.75669395274959   17.03661191078731    2.19534520163914
H         9.36831985896344   13.77476089850932    1.94698967778776
H         8.12219020010778   11.90905404951247    3.02857533923673
H         8.48975731639220   12.58420217228714    4.61785226130829
H        10.53875056150427   11.51852108786916    2.61391020264569
H         9.99723195366157   10.68823323285716    4.07553338829882
H        12.16245987385211   11.86412044292687    4.45478674189171
H        10.88143842829836   12.53417985312206    5.47012268716418
H        11.84245090102027   13.69179609710735    2.81687703816152
H        12.19452577791039   14.35245017120179    4.41548872015197
H         9.78204836760321   14.76130815392441    4.80484643850688
H        10.34854226488603   15.57299376702129    3.33487382230357
H         3.65477847535362   16.29819515691404    4.14377357113318
H         2.70327448998052   15.90839288959343    8.14063636410472
H         6.52859966463080   11.10823425608095    5.34087213349604
H         4.84046641390769   11.88219759146772    9.02462895342128
H         9.23912181823806   16.48546004025201    6.60948485728062
H         6.97844367995171   15.98676377322906   10.02513990710159
H         4.85751639690531   14.58196187061546    9.11553477986879

