91
CSD_code = EFUPUS | q = 0 | S = 0 | Stoichiometry = C46H40ClOP2Rh | MND = 7
Rh        2.75910587849002    1.09304809232725    5.57206370371409
Cl        3.11824555782502    3.30397325980408    6.13487017138705
P         2.16569904320431    1.83709443096273    3.44658788160580
P         0.39247652981701    1.30299579669409    6.59412993515502
O        -0.06547341607595    0.38839878123463    4.11573892118131
C         1.46588991482827    0.53034896649402    2.37558462439265
C         1.99422678421382    0.04675396575177    1.18898291020838
H         2.86782759364069    0.51034376585586    0.75583300596049
C         1.40231425284209   -1.04120363114630    0.57058130320197
H         1.81209373876269   -1.41735283556192   -0.35492685243306
C         0.29008805978189   -1.65565394160996    1.12126198735596
H        -0.14560115132772   -2.49609403460008    0.60583846425202
C        -0.26104412891088   -1.20470859125504    2.31420722355464
C         0.35383137729928   -0.11519009835276    2.92173034599771
C        -0.75369849329181   -0.46250690847414    4.92801987509382
C        -0.68160741240298   -0.14101848145783    6.28661498313653
C        -1.34807137096479   -0.94753382191774    7.19426916594258
H        -1.32550824116669   -0.71454745967375    8.24792450663455
C        -2.04202793949430   -2.05542802727475    6.73661052610396
H        -2.56269964930138   -2.68666679650582    7.44130261565812
C        -2.08656796528092   -2.36515250154263    5.38726379768206
H        -2.64110909831977   -3.23455331453954    5.07321442268560
C        -1.44351798452551   -1.56777477533803    4.44722597504741
C        -1.52443672403589   -1.77015640966996    2.94317171585715
C        -2.71314587566654   -0.93176518924009    2.42964322947676
H        -3.64149163110512   -1.29045306995500    2.86949519982389
H        -2.78398236782640   -1.00507171134036    1.34624056591799
H        -2.58861435981317    0.11598188607877    2.69803436146736
C        -1.74411410754115   -3.23713316107673    2.57094827223456
H        -0.91291434412714   -3.84957441839211    2.91372179396875
H        -1.84325975787230   -3.34616308029387    1.49467956721554
H        -2.66291807096020   -3.60887207641470    3.01535086823841
C         1.02916833832021    3.23243903496892    3.13393576599248
C         1.52155700175766    4.50276198788595    3.42646202269022
H         2.50507942677075    4.59965073004261    3.86367439804541
C         0.75404004145452    5.62244307359331    3.17351857485112
H         1.14698667277224    6.60360127334114    3.39647393762597
C        -0.51505749416959    5.48790867599034    2.63418759066846
H        -1.11540103436936    6.36301779324638    2.43210385656316
C        -1.01365651321418    4.22767918873901    2.35555026383155
H        -2.00433883145642    4.11802372331946    1.93754933912675
C        -0.24666804670100    3.10244253557926    2.60071607355901
H        -0.64413131165203    2.12811756463707    2.35890533135972
C         3.55319087158776    2.42267925886127    2.41089497655575
C         4.85281011343989    2.30784348558244    2.88373302918166
H         5.01707294248463    1.89042919059090    3.86904580852524
C         5.91860073896806    2.74366843336894    2.11567293945627
H         6.92751179698133    2.65665543234611    2.49217691828871
C         5.68983599277114    3.29665740983492    0.86770493285064
H         6.51933491784257    3.63846576375991    0.26592372069450
C         4.39309004435128    3.42043612494555    0.39193767083878
H         4.21407039293095    3.85818206057421   -0.57971346936704
C         3.32718246659440    2.98993866506734    1.15873745940124
H         2.31486540441581    3.09569064681764    0.79221539757401
C        -0.73856837600752    2.64621855405601    6.08779056043107
C        -0.24114025283494    3.94683078192230    6.12615074047890
H         0.79314134508061    4.11029400715587    6.39528058474709
C        -1.05869067421916    5.01600953506871    5.81147187725175
H        -0.66663066304581    6.02127153151076    5.85753568550545
C        -2.37388709498649    4.79921738344048    5.43630966106703
H        -3.01297717316182    5.63404545931114    5.18760671201272
C        -2.86757799020073    3.50742835227719    5.37899027053549
H        -3.89310151111407    3.33262331237109    5.08475299032120
C        -2.05949054124929    2.43431346160378    5.70959804206477
H        -2.46728692904100    1.43387878716699    5.67894331076482
C         0.28563722160233    1.43743481121390    8.41364519313617
C        -0.18970853292236    2.55741713198984    9.08417730596560
H        -0.57373512003775    3.39979213850649    8.52855317765629
C        -0.17147945196849    2.59897758166924   10.46782504228618
H        -0.54365810265314    3.47480617906670   10.97954780495555
C         0.32145396556263    1.53065810358434   11.19693776444296
H         0.33523908018318    1.56956076399952   12.27631493506087
C         0.80505679733752    0.41291587263621   10.53543617199581
H         1.19696581974498   -0.42280783305212   11.09807418990267
C         0.79394795639496    0.37194268623084    9.15506259942998
H         1.17905794360659   -0.49352982279469    8.63365639662992
C         3.59145350530002   -0.67730856864971    4.70458591912342
H         3.53777353818276   -0.81012615962351    3.63088022611609
C         2.60935989973508   -1.03763855935439    5.62958525791733
H         1.67211431939603   -1.52992509347047    5.40607860842545
C         3.34356065860857   -1.22645220680025    6.95671598226087
H         2.82057323128714   -1.78271401515165    7.73131256811579
C         3.70255664841207    0.23082533669259    7.26124707630226
H         3.57824553248148    0.67853924440400    8.23942056620967
C         4.69029848757855    0.57483148568377    6.32611297233744
H         5.42156993094716    1.36506350993056    6.43907826980666
C         4.91607228712440   -0.66330447597523    5.46488195883674
H         5.82362100370423   -0.69243355272625    4.86633098151216
C         4.69265564062488   -1.78657490794431    6.48466599936083
H         5.44673672348093   -1.80490441341006    7.27222077819706
H         4.61030230449251   -2.77277306520600    6.02510021280239

