49
CSD_code = EFUSOO | q = -1 | S = 0 | Stoichiometry = C4H20B20CoS4(1-) | MND = 4
B         4.61792508644565    7.64413264971401    7.42077850594522
H         5.70912385739043    8.03776248712454    7.23654951916166
B         3.21783611681017    8.13736840159611    6.48482762525382
H         3.37868185661863    8.84662824613736    5.56063401109855
B         1.87147633647401    8.45929446198148    7.58758839647734
H         1.16638249214853    9.37565804555380    7.37270786125636
B         2.40211440241333    8.17409399563104    9.23576643281052
H         2.16484720971866    8.88554025471574   10.13978097128934
B         2.88593522602148    6.49521948825149    9.39955151358829
H         2.90216728680198    6.01521789638698   10.47304238514168
B         4.23229525447282    6.17325360241698    8.29681536527492
H         5.11452412370198    5.48615802699117    8.66098644292910
B         3.66036305530579    6.41376902608902    6.62326548687338
H         4.10549682120198    5.80649298193195    5.71579389921233
B         1.94943717075125    6.91539771245531    6.71326370860251
H         1.18367933201136    6.65684174498907    5.85381670713455
B         1.45609294345651    6.94089690558119    8.42875098949956
H         0.35773351044092    6.70280756564438    8.78561115242891
B         2.58464968987463    5.68556607067119    7.84784561317699
H         2.27243340114598    4.54891940622363    7.79849443553761
C         3.48982971368865    8.78930359582617    8.04668998913402
C         4.05091350212291    7.70292302786807    9.04890778768538
Co        5.45996992719415   10.44665938164427    9.98760058960629
S         5.21156285710729    8.29453253513650   10.29278927447297
S         4.08707828039274   10.47196628449871    8.28402436700050
B         6.30184667488918   13.24927038017376   12.55462952313545
H         5.21064502885699   12.85567200686926   12.73890046096018
B         7.70195811248440   12.75601171395203   13.49053578622978
H         7.54112889995767   12.04677044747516   14.41474631410886
B         9.04826750702771   12.43402919037683   12.38772997322657
H         9.75334215375595   11.51764749053318   12.60259811089581
B         8.51757589414341   12.71921785471586   10.73956799821748
H         8.75479192160651   12.00775111394955    9.83555390437858
B         8.03379575463924   14.39810256208131   10.57577188913757
H         8.01753931123312   14.87808868381588    9.50227390882286
B         6.68748642589165   14.72012425883828   11.67855321809535
H         5.80526482862171   15.40724041810986   11.31440351810635
B         7.25947422316910   14.47961975957759   13.35208450304588
H         6.81439065449151   15.08692182593849   14.25956297813361
B         8.97038272404199   13.97794184265871   13.26203061676481
H         9.73617925484335   14.23648936794430   14.12144563327516
B         9.46366235950714   13.95240043702491   11.54652621068466
H        10.56201598861485   14.19045173923078   11.18962243200456
B         8.33516249902542   15.20777161417105   12.12745224502929
H         8.64741309303671   16.34440979326856   12.17677481496005
C         7.42988768869645   12.10405794069333   11.92869645386716
C         6.86879740346791   13.19043811029694   10.92648089103209
S         5.70807532165195   12.59885245281587    9.68265856762459
S         6.83256682263429   10.42141520042857   11.69141701767147

