64
CSD_code = EFUSOQ | q = 1 | S = 0 | Stoichiometry = C27H29ClN3O3Ru(1+) | MND = 9
C         0.10122844248074    6.95575410435575    3.63231411399725
C        -0.03249714791222    6.35876749301697    4.87859854802121
C         1.96360652384852    1.77435096702330    1.04382618434027
H         1.93326082399921    1.76693502006926   -0.04211374536731
C         0.74309143202711    1.70673635033341    1.75774492219205
C         0.82286894683411    1.63896286402189    3.16461147729029
H        -0.08689766853904    1.53147234261459    3.74418306143252
C         2.06889920588016    1.54973365433376    3.82813489198863
H         2.09168424801003    1.36305512923556    4.89570750233624
C         3.27827115002673    1.57335323539316    3.10676202563943
C         3.20910378552030    1.72506864712971    1.69850648734714
H         4.12420229356293    1.68632721389517    1.11746537094988
C        -0.58392022509463    1.68563760305938    1.03674138845447
H        -0.38707356623073    1.67941544888643   -0.04127711411200
C         4.59423982460554    1.44556565587856    3.79647109032194
H         4.49105482728147    0.93430347729307    4.75037493985555
H         4.99635228950262    2.44360404034673    3.98882621287383
H         5.31087841164095    0.91439895308529    3.17431231597363
O         2.11072951454462    8.64668418055606    2.86184202728121
C        -1.37716297306023    0.42350589634196    1.38509164301320
H        -0.78406916594126   -0.46711759133214    1.19180776342879
H        -2.27510601343884    0.37540528877442    0.77546514916518
H        -1.67701010327483    0.42057390144851    2.42967360947437
C        -1.38629201224519    2.94816287112039    1.36748073024069
H        -1.62152234408704    2.99321950978375    2.42872833823617
H        -2.31977955968941    2.95223672465562    0.81132799639979
H        -0.81975206520467    3.84076895769317    1.09456576897043
H         2.77368499640248    9.33848743379290    2.74377487634230
Ru        2.00638652690683    3.49825707949087    2.54072212339109
Cl        3.78744713901332    4.78132647270244    3.33764312160837
C         0.82908886273389    7.04817152544710    0.59505126266416
H         0.20007447884171    7.87525853526893    0.87605686895975
N         0.90232076467945    4.87145356611588    3.51114427863592
N         0.66962126597474    6.01891540894126    2.82396012081376
N         1.82082247928273    4.94215082194978    1.17806251055928
C         1.10506101889359    6.03775992735439    1.50958895161609
C         2.37562876896000    4.89285357084091   -0.03506980760594
H         3.00346022296831    4.03690013975908   -0.24225823138608
C         2.19017232469559    5.87970714329724   -0.98165986943685
H         2.66514074092499    5.79735871361713   -1.94498728859229
C         0.50074918354663    5.05107368186571    4.75579071610831
C         1.37940325497762    6.96465334467488   -0.67082848746271
H         1.18745281249330    7.73701971206779   -1.39766719712943
C         0.68571413631724    4.03262952777845    5.81296143327539
H        -0.00192160643030    3.19996621964028    5.67613953725952
H         0.48760824276402    4.47896790300902    6.78314378689634
H         1.71035179029451    3.66189929484622    5.77555645258202
O        -0.69027587061974    8.27166889931161    6.03696164055118
C        -0.53456816955551    6.95280315524693    6.13542893850267
O        -0.76354977066262    6.31438410582347    7.13138207071887
C        -1.15103127669957    8.93815719294450    7.20791275614118
H        -2.03711351476041    8.43966374896229    7.60445252529546
H        -1.38205523719304    9.95502041738454    6.90297351803349
H        -0.37324372911967    8.93551012132654    7.97335957839136
C         0.86731552884363    9.18655191844346    2.92152657103933
C        -1.49125817709331    8.84029271921909    3.30652061793893
H        -2.30153431020819    8.17749464971564    3.56691470175922
C        -0.19736866538377    8.33435810712811    3.25252486474389
C        -0.67980475570595   11.01412954657638    2.71342322724413
H        -0.86249820080173   12.05763366858008    2.51045251669445
C         0.61349078257399   10.52655201233669    2.66049969345962
H         1.43637852478944   11.18572575070235    2.42234711876709
C        -1.73431184116359   10.17173169776461    3.02735146125568
H        -2.74152759649678   10.55413032706021    3.06437034062336

