165
CSD_code = EFUVAD | q = 0 | S = 0 | Stoichiometry = C64H90Cl2O6P2Pd | MND = 4
C        12.73955691157347    0.53129022605758    6.59699145522729
H        12.32042970388283   -0.41691591420564    6.24352387465181
C        12.98419579236296    0.45745169585299    8.10182316417638
H        12.04362854642895    0.18501240908040    8.62787260711429
H        13.32104178022987    1.43950843890593    8.44700889023119
C        14.03989170021956   -0.58930767181112    8.45215742866924
H        13.68854123897007   -1.56489231064818    8.10084823435197
C        15.33816663300517   -0.24227158893218    7.72766244489311
H        16.10057080204405   -0.99042397926790    7.95318221820177
H        15.70290838605341    0.72635132596247    8.07961876070628
C        15.09867168638435   -0.18983659167555    6.22226927756352
H        14.75904646739394   -1.17083293480220    5.88948926824737
H        16.03325429424059    0.04095857202022    5.70948085931041
C        14.04686669657491    0.86201647885303    5.86258302165851
H        14.38110199888849    1.83635572443160    6.24335153260021
C        14.22493487927759   -0.65286977447840    9.96500999134419
H        14.57787009089142    0.30328722814682   10.34790277805451
H        14.94913135211242   -1.41890156236710   10.23100626954291
H        13.27951752755940   -0.89168471658950   10.44823544565610
C        13.82719710013805    1.01853789316319    4.34344301219186
H        12.91673239248102    1.61227822763753    4.21838910023216
C        13.61541028852332   -0.30779742162076    3.61734891905683
H        13.32887005458777   -0.11717545174935    2.58528245524030
H        12.82195991869861   -0.88462737197797    4.08433701074151
H        14.52637806023986   -0.90088179339214    3.60852321438537
C        14.97908477750003    1.79421210169734    3.70535277674698
H        15.90925079119669    1.23479654333935    3.77020670361984
H        15.11801142553852    2.75277457280734    4.20102034330089
H        14.77008805860941    1.97790206929701    2.65390164870200
C        12.17301276151900    3.86532511716418    7.83751903248891
C        12.59151898229241    4.43869891945647    6.63913263885281
C        11.73264364467053    4.45937098487307    5.39730048727367
H        12.19691725866707    5.12954202408709    4.67047746105070
H        11.71249820296688    3.45663254674811    4.96337864865745
C        10.31863317102737    4.90794380686415    5.64588347491034
C         9.32149812496449    3.97769815354972    5.92823273724867
C         8.02515190250093    4.39474385756428    6.20212905491167
C         7.71958263156697    5.74559391560151    6.09512232721020
H         6.70286622617133    6.03850697082440    6.29730243129481
C         8.67437112415527    6.69269143172332    5.75899538163529
C         9.97876202204458    6.24874932484654    5.56675192846620
H        10.76394146755445    6.95404182651654    5.33891810484380
C         8.34582962597426    8.16838870738672    5.59177393427378
C         9.15071818053410    8.98429481903602    6.61082772355805
H        10.21938284601328    8.83870934356699    6.48021324521794
H         8.88317845629639    8.68152968601252    7.62029281244589
H         8.93461278891820   10.04457989500476    6.49845871815107
C         8.71702302809975    8.59989414365328    4.16596907297077
H         8.17422747903910    8.00014963559692    3.43877641505835
H         9.78041465085226    8.48032396630041    3.98031404650782
H         8.45996801369245    9.64572936775992    4.01256058412904
C         6.86012512128220    8.46768413198364    5.80938407602418
H         6.68156793590143    9.53195433867128    5.67017756540404
H         6.55244988039355    8.20437958324460    6.81875926272456
H         6.24445808835444    7.92705981400969    5.09463823546502
C         6.96222167163890    3.42975166433157    6.66568918924284
H         6.15408861090836    3.38060657896332    5.93250007333282
H         7.40315816820910    2.43384374305947    6.76694326241440
C        12.98552421840106    3.92187300852169    8.97226625361096
C        14.24358137576234    4.49735367108004    8.87996723097637
H        14.85479347512312    4.51363488553500    9.76770391693776
C        14.71550765088613    5.02727194549626    7.68657958203785
C        13.85749648289333    5.00744438221765    6.59380059812042
H        14.17767524650005    5.44008157251001    5.65770698351559
C        16.10603644316700    5.62526698245037    7.53778665860422
C        16.86659857594736    4.84607813422391    6.45523527154257
H        17.87537569459951    5.23897670008185    6.34996075467218
H        16.37204562057543    4.92060869991370    5.49081777985719
H        16.93307972870400    3.79403992255955    6.72455948938643
C        15.98024658642059    7.09947458129472    7.12899115074635
H        16.96723272087307    7.54742975731955    7.03789809334955
H        15.41891179498612    7.65147921746277    7.88001482917051
H        15.47016559987450    7.20561166575774    6.17584927114669
C        16.91797057875435    5.55751828015558    8.83401681410686
H        17.05202949361126    4.52864278666385    9.15924643459332
H        16.43784887351696    6.12496158529511    9.62785241973651
H        17.90351937780428    5.98648310294839    8.66592684259665
Cl        9.96627472943967   -1.13856461680562    6.83153887964344
O        11.80204025094263    1.57135815150561    6.26023319593438
O        10.95350018574468    3.22640557932323    7.97812194295491
O         9.61840363263840    2.62248180580867    5.91699232724757
P        10.49415296272925    1.94496606384683    7.07722376296064
Pd        9.70593060983798    0.40863375634839    8.47879346658779
C         6.67304318926913    0.53128627468047   10.36259663827751
H         7.09202189657641   -0.41727314900678   10.71529768021383
C         6.42821096885480    0.45850474254316    8.85773406209003
H         7.36895603821911    0.18779714160203    8.33118524457478
H         6.08990492624803    1.44034881248605    8.51335518270943
C         5.37400730640535   -0.58960229902798    8.50704953687919
H         5.72674815774097   -1.56471425396428    8.85827647338069
C         4.07517922938036   -0.24444412365196    9.23142987290509
H         3.31396812102673   -0.99385955477165    9.00607045957680
H         3.70891142532500    0.72350493193651    8.87921746628652
C         4.31442202029917   -0.19137939094247   10.73683513176813
H         4.65471369790256   -1.17204204061976   11.06989744767249
H         3.37951717751339    0.03877962209418   11.24932497035569
C         5.36537510052392    0.86128826775174   11.09681092113091
H         5.03056118720161    1.83541768298548   10.71600947232652
C         5.18925603707585   -0.65326145717107    6.99417586100644
H         4.83480314759627    0.30236559703975    6.61135457202518
H         4.46635925356129   -1.42045653107555    6.72800892097234
H         6.13513584044516   -0.89048461363008    6.51105425611529
C         5.58408605548067    1.01782612039835   12.61608659932860
H         6.49383527720512    1.61254091206399   12.74175674400933
C         5.79676351026946   -0.30845944631808   13.34202993831224
H         6.08269701903243   -0.11782384189653   14.37426114705028
H         6.59085737633642   -0.88454140588455   12.87521389214660
H         4.88628173109222   -0.90229813157352   13.35036703600206
C         4.43097380920268    1.79207056523029   13.25375511769306
H         3.50142058692987    1.23173063145845   13.18804939652496
H         4.29134059162931    2.75073050177603   12.75846846686149
H         4.63906373301243    1.97546728177871   14.30544437263728
C         7.24033335788721    3.86463588017040    9.12126440470519
C         6.82185310709758    4.43820360574048   10.31958073811758
C         7.68069954913930    4.45895264428648   11.56143618977277
H         7.21654609594698    5.12941069238044   12.28807620760564
H         7.70077318614954    3.45636057757350   11.99567742796374
C         9.09467468398700    4.90743981791957   11.31255003384788
C        10.09187328571032    3.97723877686893   11.03035928474212
C        11.38813140793751    4.39436805017747   10.75609880439183
C        11.69354473095400    5.74529910577641   10.86257095835362
H        12.71016562879654    6.03830644724994   10.66002119669725
C        10.73871143712618    6.69234603086478   11.19865757811350
C         9.43441085283517    6.24830381473920   11.39121467890629
H         8.64919214744449    6.95357459608245   11.61896017722520
C        11.06709872760189    8.16805472967389   11.36596401571084
C        10.26214662364929    8.98406531853800   10.34706158022686
H         9.19351662098465    8.83764986840156   10.47704368760612
H        10.53038539252592    8.68212330924165    9.33753101905761
H        10.47746889085652   10.04442707102513   10.46020514266465
C        10.69582622445128    8.59906906755589   12.79190614024662
H        11.23807000651619    7.99854689226285   13.51887428965813
H         9.63231714006928    8.48003509182186   12.97722771309841
H        10.95348914068368    9.64464887048515   12.94599004075592
C        12.55277289341190    8.46757509633454   11.14847456158585
H        12.73117914731762    9.53184114006568   11.28792007370910
H        12.86054195713553    8.20453560353396   10.13905775298263
H        13.16847693915636    7.92687133630258   11.86312675409099
C        12.45124091888705    3.42948696988563   10.29272440499493
H        13.25917983960013    3.38023805649802   11.02612430645883
H        12.01029595014200    2.43359634336222   10.19127649690355
C         6.42819162393583    3.92198223213435    7.98628608936305
C         5.17040895406809    4.49808804519266    8.07839582989438
H         4.55950572400918    4.51501000528139    7.19046295793944
C         4.69827835274317    5.02769325200533    9.27181769494033
C         5.55604903170899    5.00736288375511   10.36477644387880
H         5.23581839925624    5.43991901186228   11.30089137288686
C         3.30776662202808    5.62577208460207    9.42036782206667
C         2.54702453987239    4.84652761290972   10.50275202896718
H         1.53812872209241    5.23920168764479   10.60769847670016
H         3.04126858624475    4.92119810796286   11.46731516674700
H         2.48085307638469    3.79446351170606   10.23343536435306
C         3.43356008751285    7.09997555917568    9.82913566320974
H         2.44658498848355    7.54791339843328    9.92041133743677
H         3.99473135750568    7.65196825303447    9.07797952570070
H         3.94385313567259    7.20613192168694   10.78215997680625
C         2.49602769027251    5.55800210168118    8.12401023213850
H         2.36218578221416    4.52912787778583    7.79868404758433
H         2.97614568572428    6.12558636629083    7.33027466656175
H         1.51038720017984    5.98679506482852    8.29200295258354
Cl        9.44515130169375   -1.14667031538710   10.11841809981387
O         7.61082199904281    1.57092724003508   10.70008798678027
O         8.45942921936724    3.22473511398180    8.98089495399921
O         9.79511803583835    2.62191180236761   11.04202998329651
P         8.91880625734338    1.94390918617171    9.88259020313079

