54
CSD_code = EFUWAD | q = 0 | S = 0 | Stoichiometry = C26H22N3OPPd | MND = 4
Pd       -1.76238957587404    0.88433273419110    7.73378218989971
P        -1.32924483890972   -1.10616909303842    8.78059058638421
N        -3.65614356431046   -0.22960072607511    7.11079922004975
O        -5.27405887528352   -1.74512179076022    6.92520112806537
C        -4.86795141701342    0.56672551622112    7.02690666754523
C        -5.01973226493331    1.39082090850352    8.30334924476560
C        -5.96915860477287   -0.50436191970558    6.83817360381907
C        -3.96406994981537   -1.46536715219228    7.08718549962934
C        -3.05982776064164   -2.61545296867822    7.15692966672246
C        -3.44798602689515   -3.76978481239088    6.48036952871515
C        -2.63624377151573   -4.88884670526476    6.46553719294511
C        -1.42429486695197   -4.86494366070200    7.13390019573006
C        -1.03886090835981   -3.73115993572105    7.82831680613223
C        -1.84527850524121   -2.59871646052372    7.86303615218606
C         0.22541788097331   -1.62475149962537    9.57472847934030
C         1.39596217448534   -1.27311089452022    8.90586858049046
C         2.62602329394822   -1.61577342199782    9.43601834161655
C         2.69201535582693   -2.29581899893339   10.64204768763249
C         1.52905758451008   -2.63165045499311   11.31753861885429
C         0.29446575481315   -2.29904869969426   10.78881681712921
C        -2.53724000585651   -1.08485683636410   10.14512656067941
C        -2.82263527126947    0.17487321564143   10.66968077261057
C        -3.74021218970587    0.31260573781042   11.69490920192196
C        -4.38379329571135   -0.80866342091518   12.19602002283725
C        -4.11097116686252   -2.06179165743036   11.67093001027599
C        -3.19029165570296   -2.20468785615855   10.64699645629073
N         1.47620700060819    1.30622431840442    6.21304782660120
C         0.63979153484004    1.78796298258270    6.84224893330371
C        -0.38293973089456    2.39491394654293    7.60702897563819
C        -1.58080570886948    2.79350809146187    6.93533273796827
C        -2.42504355228124    3.72472305313368    7.56822570746041
N        -3.10883679365960    4.48834892246208    8.09466426219982
H        -0.09036242432175    2.86600185944949    8.54949388449820
H        -1.62657128736052    2.75855224961711    5.84150266599807
H        -4.78988475889383    1.23900915332584    6.16328126231140
H        -5.82239859681474    2.11515603641722    8.19798789588493
H        -5.22604812014838    0.73881023482711    9.15140255409528
H        -4.08372220896826    1.93334814149882    8.49286049860036
H        -6.72532163974550   -0.47356436854231    7.62697676942222
H        -6.45935181461002   -0.44780145132712    5.86263125040230
H        -4.39081388865946   -3.77374953668099    5.95517899190021
H        -2.94723111913491   -5.77288857440987    5.92996807493849
H        -0.77859604742350   -5.73033879187419    7.12072214387133
H        -0.09553548969035   -3.72293503412008    8.35480737515373
H         1.32846637709568   -0.72462852728122    7.97247532873010
H         3.53163017230074   -1.34471295212403    8.91417833621394
H         3.65190663312556   -2.55834820015808   11.06180476374010
H         1.58447798325954   -3.15386420104671   12.26191286202519
H        -0.61240751650117   -2.55659552561274   11.31797177637554
H        -2.31194020803077    1.05052511811667   10.25128952171270
H        -3.96138956231749    1.29009618765862   12.09718065784279
H        -5.10513193478263   -0.70488135062118   12.99310650381923
H        -4.61976841616457   -2.93198918168750   12.05989407906763
H        -2.98513641098795   -3.18226174667660   10.23116512796224

