86
CSD_code = EFUYIN | q = 0 | S = 0 | Stoichiometry = C45H34BrNOP2PdS | MND = 4
Pd       12.36656133006870   11.36495902372411   11.01495642716964
Br       13.64755605582228   11.36489048511761   13.13414215765672
P        12.74201255552859    9.17891627572697   10.73465070843757
C        14.57219983455384    9.07134977356026   10.72569023588069
C        15.19306336448296    7.87773263068242   11.07545834935115
H        14.57966061974158    7.03945511538831   11.37057386063434
C        16.57299428383336    7.73996748213948   11.07762397696472
C        17.21280664488211    6.45238392937112   11.49202118927402
H        17.27369890314363    6.40711533591787   12.57928064947473
H        18.21974089504864    6.37233435647347   11.09105266226878
H        16.62494081305145    5.60230358197568   11.15357967984941
C        17.33930629406469    8.83273342679574   10.70579800468102
H        18.41648287984299    8.76938878264957   10.68304833231493
C        16.73881982014543   10.02872174080247   10.34810555749424
C        15.35634788858071   10.17777424324212   10.36163267737441
O        14.74312954675154   11.36501476121251   10.00215468734868
S        17.77984507489188   11.36512415170002    9.83392533290898
C        12.16575882104700    7.89658957612337   11.88222382831649
C        12.14892686645271    6.54732817451077   11.53485500499751
H        12.49533877581916    6.23618787281687   10.55790653550005
C        11.66893172384412    5.61333461629983   12.43332486387776
H        11.65987132579286    4.56682776203592   12.16490216189456
C        11.19486668296715    6.01630993507612   13.67256300920895
H        10.82253650988535    5.28064953663117   14.37009124791949
C        11.18533323702373    7.35912294665208   14.01001745335312
H        10.80288879575789    7.67556576190962   14.96872887987291
C        11.66312643042720    8.29922322808442   13.11483579260835
H        11.64821406507464    9.35286666824812   13.37058436735546
C        12.29598390396840    8.47589633933263    9.11716703634933
C        10.94530916861691    8.20676992726544    8.90225130658540
H        10.24653300318639    8.32705589955346    9.72155700020846
C        10.50395193968662    7.80362335193964    7.65861300079936
H         9.45525349640803    7.60371177416239    7.49532841487868
C        11.40765351352127    7.66947175069781    6.61519408370668
H        11.06114221976663    7.36574116680587    5.63876615865730
C        12.75069236725296    7.93032365196426    6.82419778051052
H        13.45483705192837    7.82419989771060    6.01172298711858
C        13.19760815961878    8.33781079988090    8.06970337261387
H        14.24667011669171    8.55016950408631    8.22753915970039
C        11.23484422998864   11.36517047933906    9.37774180981380
C        11.80100144599766   11.36534450766423    8.10637817581319
H        12.88162944323656   11.36544136456585    7.99349010133237
C        11.00691904835242   11.36547618501403    6.97885424326629
H        11.44765182332566   11.36575138772829    5.99190758905394
C         9.61773935774812   11.36526554419370    7.11480227917663
C         9.04025694470177   11.36516398771644    8.38512428707315
H         7.96321680664484   11.36504087336054    8.48162091221044
C         9.84947265503067   11.36513638970048    9.50522633827728
H         9.39159862528124   11.36482901957528   10.49341851756059
C         8.79799252897460   11.36461516355498    5.96765361321001
N         8.12862899546529   11.36412899034888    5.03521398064289
C        15.35625901925819   12.55230492923398   10.36164057266428
C        14.57203831480010   13.65868282846337   10.72568547707438
P        12.74183999371916   13.55112923235152   10.73465569858084
C        12.16579152500356   14.83352626216886   11.88225076476269
C        12.14865429808603   16.18271434660279   11.53463550252614
H        12.49454599422478   16.49369412533289   10.55744909644484
C        11.66906548202126   17.11684466909655   12.43318039255871
H        11.65971246618106   18.16329061395324   12.16453589329954
C        11.19577951902049   16.71407271677536   13.67278733899479
H        10.82377007314236   17.44983569065250   14.37037536906449
C        11.18652677517332   15.37132483647789   14.01049079787192
H        10.80467445978913   15.05502953889632   14.96948724448708
C        11.66384432100768   14.43108227497660   13.11520603569250
H        11.64917302167543   13.37750454796284   13.37118921663377
C        12.29581599897627   14.25412204794262    9.11716093183979
C        10.94513805776948   14.52316153983226    8.90218587080581
H        10.24633229760720   14.40285370642391    9.72146564292295
C        10.50380984475811   14.92627971837683    7.65852983198149
H         9.45509763586700   15.12607362246140    7.49518371200230
C        11.40755159678515   15.06050821978335    6.61515133344214
H        11.06105105030061   15.36410121120414    5.63867973581032
C        12.75059901619774   14.79973666219284    6.82421663912755
H        13.45476466431534   14.90585917610735    6.01176125834416
C        13.19747647102192   14.39226523907089    8.06973746279304
H        14.24655441310824   14.18002036604326    8.22763118387582
C        15.19283711773900   14.85231350863345   11.07552267909840
H        14.57937636297405   15.69056533121389   11.37059911151523
C        16.57276196698812   14.99012614903276   11.07782299689870
C        17.21247122224687   16.27768285053892   11.49245975754130
H        17.27297314036146   16.32290897644911   12.57974358397557
H        18.21954807439550   16.35772201167621   11.09185096876280
H        16.62474055856617   17.12778892319175   11.15384447007416
C        17.33914133766173   13.89742208340165   10.70595742593591
H        18.41631685653644   13.96080695700131   10.68327208093232
C        16.73872016879762   12.70143595543873   10.34815413913372

