88
CSD_code = EFUYAF | q = 0 | S = 0 | Stoichiometry = C46H36BrNOP2Pd | MND = 4
Pd        0.53922934395697    1.62826297175498    8.01992726232725
Br        0.15614504816129    1.75867333999316    5.57843554033081
P         2.66970331518195    2.27351800091777    7.75317681892938
P        -1.64212172201786    1.96115957617791    8.43110576772647
C         2.51277832485693    3.89393412942061    6.91300675068885
C         3.50735609323605    4.36286344530146    6.06343184628672
H         4.38670348311444    3.76036664616033    5.89354596351903
C         3.36219664332446    5.57311201281848    5.41417065230091
H         4.13438340088173    5.91964817183259    4.74458970990016
C         2.23303649487652    6.34542584120614    5.62085511310652
H         2.14543537547272    7.29078155516914    5.11177679441348
C         1.22459698347044    5.91332575728996    6.46816690363794
C         1.35987234156868    4.67292767668078    7.09134332626168
O         0.33947075689980    4.19044746023488    7.88406018231036
C        -0.93479981734930    4.51441067823623    7.46728390415274
C        -1.17137328895307    5.75073534525757    6.86576018242038
C        -2.44619370926252    6.03106489156882    6.39935962109072
H        -2.65179320900971    6.97095727852120    5.91477309781169
C        -3.47059449030081    5.11293153038088    6.54680249540621
H        -4.45632200865750    5.34345541991269    6.17275058018968
C        -3.23768322119654    3.90388356074647    7.17186903449297
H        -4.03821661555390    3.18738972576420    7.27671589834096
C        -1.96975584435624    3.58369128236482    7.64267190551968
C        -0.00919651607776    6.72433875175984    6.81565702959130
C        -0.24803448683523    7.88095780423649    5.84794401330092
H        -0.39243563078235    7.51450578398645    4.83443782945992
H         0.59767918892434    8.56358998548381    5.86353241806272
H        -1.12422819968408    8.44859298863068    6.15046757076894
C         0.18797212418003    7.29964272483327    8.23447117726794
H        -0.69738465164841    7.85523890130593    8.53706788556598
H         1.04478236226210    7.97036405853288    8.24813360908335
H         0.36054318785769    6.50718518853775    8.95985318909296
C         3.90423584571674    1.33275912600986    6.81476075134451
C         5.26485068140195    1.62213102614749    6.89031210328213
H         5.60982049200009    2.43655335959994    7.51395156974170
C         6.16940824153482    0.85403883077438    6.18200737285918
H         7.22442426267238    1.08036790978014    6.23746839123533
C         5.72692305738555   -0.20706749257849    5.40649317084262
H         6.43963047874352   -0.80233945969460    4.85495962457377
C         4.37734445046252   -0.51146731743368    5.34865107192156
H         4.03379090000012   -1.34544955463753    4.75528889777763
C         3.46675771306013    0.25245622636085    6.05628620343406
H         2.40907833077537    0.01399864577697    6.02235456520399
C         3.58418446013350    2.69949788996283    9.26781050299848
C         3.68236043728874    3.99546983044131    9.75784791976034
H         3.29896977590925    4.82328481897715    9.17595631453260
C         4.27051237932123    4.22495557081298   10.98997904727189
H         4.34482189245143    5.23441874506930   11.36813150270308
C         4.75360017761214    3.16722734536609   11.74055142539064
H         5.19933930874553    3.34888184461780   12.70704261152056
C         4.66087486541696    1.87177490331051   11.25422483236000
H         5.03479887836655    1.04567952342555   11.84086168031550
C         4.07712942850237    1.63892055658903   10.02574313083507
H         3.98750296240135    0.62975759765809    9.64181040052618
C        -2.98396020820280    0.87001366441368    7.88078157536689
C        -4.26740223168025    0.95991871745172    8.41548604968283
H        -4.48538448200485    1.69972925247212    9.17464850644535
C        -5.25258846705581    0.09162250233386    7.98507508212214
H        -6.24849743239748    0.16388185369533    8.39778338782371
C        -4.96468387146957   -0.87184772083044    7.03020000452567
H        -5.73991541935233   -1.54611692032590    6.69724388439138
C        -3.68471052877459   -0.97712070098095    6.51275272710128
H        -3.45689108299295   -1.73392365873739    5.77726810735718
C        -2.69320567731673   -0.11259702302681    6.94088666908685
H        -1.68814366684494   -0.19565399173099    6.54380966315464
C        -2.08676624083961    2.26378531633547   10.16977363604733
C        -2.21907821196274    3.53483352709291   10.71368748955636
H        -2.16652953361738    4.40476191849582   10.07229562954245
C        -2.41721423105330    3.68537428977536   12.07573774738385
H        -2.51931188479882    4.67567593850313   12.49576620033158
C        -2.47513407640483    2.57489952375881   12.89973141185040
H        -2.61556149462181    2.69712939701899   13.96329324839974
C        -2.34730208306944    1.30339580104307   12.36082473971894
H        -2.38937631668363    0.43657654455972   13.00369977671924
C        -2.15182422927091    1.14892269381366   11.00368658635161
H        -2.03755257371233    0.16121870675140   10.57303681667825
C         0.86956838360850    1.38342658802226    9.96893418381224
C         0.92845091552239    2.46298810884603   10.84570514662281
H         0.79040198633723    3.47342874939067   10.47174880098293
C         1.16039433192528    2.27113644433793   12.19137461887350
H         1.20562701593277    3.11107603250590   12.87035253701195
C         1.33920942297693    0.97671910898985   12.68204232679225
C         1.28304217903883   -0.11305201921103   11.81225125570249
H         1.42309626436981   -1.11279229282821   12.19991850463940
C         1.04979871710647    0.09620681562281   10.46644884127694
H         1.00782417626074   -0.75994560515174    9.79427489489171
C         1.57647983218053    0.77281006980051   14.05673146570235
N         1.76893064242643    0.60748595642542   15.17621132026087

