80
CSD_code = EFUYOT | q = 0 | S = 0 | Stoichiometry = C40H35ClOP2Pd | MND = 4
Pd        3.33311192835253   11.39374751250972    5.58909726369175
Cl        1.22367290006202   10.40671067854017    5.14102178321774
P         4.21603746498706    9.86676945501567    4.22324603603475
P         2.41586895415826   12.25100304151461    7.43311989180957
O         3.35047529400268    9.39375024299225    7.08602657397056
C         5.13067836738247   12.31710741456977    5.91806953690211
C         2.64300613971266    7.07097010229710    8.41501042355920
C         4.00881429685150    7.14436214580522    9.13002456575230
C         1.89750359261784    5.83520772838101    8.91392857211625
C         3.64775721067554    8.29364009349594    4.97248930317302
C         3.53687308660064    7.13640224457728    4.21207761112272
C         3.09881829209969    5.95755425646901    4.78262050836748
C         2.78906729648091    5.91023746064278    6.13015471702511
C         2.89649241040121    7.04380162645869    6.92025052823381
C         3.30334215679375    8.24202183200165    6.33025054078668
C         1.78462942750807   10.75889487381555    8.28989763908668
C         0.73692937373548   10.84189716954103    9.19822681412116
C         0.26242905463299    9.71037560217861    9.83203658234167
C         0.84579039728634    8.47998934780913    9.58730272595363
C         1.89877636696352    8.36231879583024    8.69394163272524
C         2.34949444136587    9.50323581089229    8.02732519248626
C         6.01502008439095    9.59626677257694    4.14820800156171
C         6.66887724151289    8.74630593232905    5.03289389748921
C         8.04747302837471    8.63401468006321    4.99709235219520
C         8.78372496756112    9.37459231940974    4.08772228386613
C         8.13908808421363   10.23742052164869    3.21514853359920
C         6.76290232075761   10.35324844228876    3.24952461383181
C         3.73307761661497    9.79004444803497    2.47482979460326
C         2.70008347619935   10.62935325623183    2.07019057801767
C         2.29080259340806   10.64103445919129    0.74916854286487
C         2.92089929306151    9.82555857456236   -0.17619904837237
C         3.97016720713620    9.00924202010855    0.21675464046570
C         4.38257903151805    8.99182665038124    1.53640520400060
C         3.44355633091016   13.00004633750530    8.73610809789352
C         3.73006979357004   14.36082146512870    8.65919983026937
C         4.57153779457323   14.95025836602475    9.58287450397221
C         5.14737209549226   14.18381061078244   10.58403923524651
C         4.88291753651733   12.82632225320735   10.65348965326210
C         4.03870533643247   12.23341175191626    9.73159223802745
C         1.01326276579114   13.39842711494298    7.32538602580290
C         0.51729653743312   14.10641445362089    8.41732941580063
C        -0.53885718471324   14.98218447334257    8.24563709239079
C        -1.09709665659062   15.16529365182016    6.99003317284324
C        -0.58820231736383   14.48363050535036    5.89702875968862
C         0.46916467433553   13.60760553246041    6.06223551940275
H         3.77144841737080    7.17058577213791    3.15935112783990
H         3.00123065260970    5.06907324564915    4.17723501242365
H         2.46077827172410    4.97813703017087    6.55975129798502
H         0.27501443136095   11.79857542167966    9.38728646500891
H        -0.56306065757087    9.78578466570006   10.52364262140896
H         0.46980062069155    7.61035558844346   10.10065246873378
H         6.09533763940351    8.17012506939866    5.74647742656674
H         8.54997814420878    7.96707850829803    5.68285064518589
H         9.85970303312171    9.28446019446724    4.06180095492323
H         8.71243307691093   10.82293087862827    2.51110698933451
H         6.25319664511577   11.03003627669212    2.57538540723541
H         2.22048396599583   11.26758856151138    2.80738116136268
H         1.48386066046622   11.28849627830799    0.43945890619150
H         2.60333717726500    9.83236513104429   -1.20873830081495
H         4.47205779380366    8.38674399034494   -0.51021281251025
H         5.22095937398837    8.37574238185019    1.83401401757869
H         3.28278047944823   14.95240698575311    7.87046188156584
H         4.78389652950607   16.00775382711983    9.52132380132032
H         5.80607861357959   14.64417075987087   11.30562059666898
H         5.33792026634049   12.22643535064684   11.42852643788125
H         3.83605854044193   11.17212994125184    9.78469543854371
H         0.97028007448819   13.98837491254108    9.39296182551761
H        -0.92609824510419   15.52837178914571    9.09392778910829
H        -1.92307394471078   15.85009742340452    6.86426530933954
H        -1.01317617004914   14.63878643965522    4.91640772235346
H         0.88472037338416   13.06969553056128    5.21424776175628
H         5.00137332587616   13.34168839620429    6.28076192438351
H         5.74934523402518   12.34928685650415    5.01608425823084
H         5.67199888407443   11.74790602169884    6.68479448647886
H         4.59073245520002    6.25070741475509    8.91302159601522
H         3.86157747754967    7.21459610890221   10.20603106294341
H         4.57674422027425    8.01264842297420    8.80299655143418
H         2.47902354881733    4.93946728807262    8.71066587159307
H         0.92656382838766    5.74681761050016    8.43232434369410
H         1.75750515819575    5.89124789785470    9.99052657151470

