28
CSD_code = EGADAU | q = -1 | S = 0 | Stoichiometry = C10H3CuF13O(1-) | MND = 4
Cu        5.58624951718743    4.00912913361676    3.69329993980941
F         4.39572562717766    5.76003724669189    1.74121779925291
F         5.15129570893353    6.82772130820631    3.42546432597558
F         6.51837864052417    6.02018901205521    1.96869775946941
F         5.52742467939857    5.67183542291577    5.94291541701806
F         7.11179370774134    4.24002922074491    6.12229217565102
F         7.35340815910529    5.91551731779731    4.82040683953112
F         3.41855482297679    3.21925201452307    2.09958831367494
F         4.83177121164279    1.62011153965451    2.27224714124828
F         5.26822572290097    3.27090943332584    0.98756605608190
F         3.66079923876211    2.66324201505616    5.74868643511804
F         3.85486811281784    0.45231458135274    7.14678786239791
F         8.09950953302541   -0.38993322277950    5.18877464093298
F         7.88154643158273    1.87872567791367    3.77355994381553
O         6.25322064367679   -1.22198172789574    6.85939003259414
C         5.39047960448878    5.71737662427539    2.67123378034879
C         6.43529473442442    4.99093742322106    5.19809876113125
C         4.75112743066401    2.98599588513301    2.20945034479777
C         5.76002806448318    2.37343061515598    4.69958231128506
C         4.78186421154247    1.93864918520333    5.57818419733602
C         4.88422705138236    0.76375604643786    6.32003932184573
C         6.00396158711860   -0.05716884924382    6.21315762081017
C         6.99805190390109    0.37392948067699    5.32525445571136
C         6.87455961756343    1.54688014601758    4.59928956085713
C         5.31354029540587   -1.72476380063733    7.78363618001399
H         5.15786231765870   -1.03506048733632    8.61706706748904
H         5.75008393701473   -2.65049188450406    8.15605054258383
H         4.35374748689857   -1.94116935757841    7.30796117322092

