68
CSD_code = EGADOH | q = 0 | S = 0 | Stoichiometry = C36H18F7IrN4O2 | MND = 6
N         6.20803723369528   13.80033091254297   16.41804078746047
Ir        5.28982230367709   13.36202695089512   14.69519536249472
O         7.42975449528761   16.67468552058426   13.13751675695095
F         4.73279170581985   11.85526140803803   17.64714977495718
C         7.36018435044878   13.14797640881615   16.68938195224661
C         5.04276166929372   18.11835753178749   13.29472788170960
H         5.93603073838666   18.54023846151589   12.85694399090311
O         3.86787307076875   14.99213757372801   14.79066788115981
N         6.56645989189841   14.80248506896348   13.86189008202313
F         6.08656393411174   10.77581328476382   12.72968318839855
N         4.31620120174836   12.90650556645913   12.99341828478038
C         3.93441863440026   12.05671677026632   15.41971051351786
F         2.64061382790779   10.30058205860226   18.34867119650539
C         6.73985606448331   11.96074357526610   14.67575674746069
N         7.85999274294600   14.57087473911485   13.58196575018881
C         6.30804844451753   16.07245247934541   13.59871931214325
C         5.08847627865030   16.78231474088380   13.73856380764301
C         6.97900888930098   10.97667446472921   13.72814087730686
F         0.89784635337823   10.53431203393462   14.02155588918279
F         9.78909376259049   11.46624650179575   16.65779656383696
C         3.93056310753912   16.17730421033088   14.32899515969403
C         4.65579117001145   13.36506708243708   11.79406063399487
H         5.59676339299365   13.89152694550155   11.72300514512429
C         3.79915791046466   11.56217816362471   16.70976074249065
C         7.69645545562179   12.12294698309891   15.70534536199219
C         8.36102151326680   15.68552438545122   13.15184483731024
C         2.94092694341444   11.69537921185428   14.47930097152684
F         8.31502150690131    9.23875530460510   12.82301917343713
C         8.09039275068120   13.45761301917882   17.83554163450624
H         9.00670479137093   12.93875331238049   18.05558147748654
C         9.71896536958388   15.90985571786862   12.72250717274417
F        13.57905099112412   16.49096417020470   11.49988272834109
C         2.77359306843837   17.00330258067716   14.41822286932605
H         1.89567480101055   16.55558138905727   14.85983576106791
C         3.17055243436502   12.20106582409198   13.12879630109177
C         5.76145895239152   14.72758443394423   17.25660968743105
H         4.82332053086639   15.19694057234068   16.99319419293834
C         2.76121129712395   18.29377315947374   13.97351947700173
H         1.85920090763009   18.88257321005073   14.06100309297969
C        10.62895254580416   14.85101872775188   12.76516117103016
H        10.29254898565564   13.89076442598614   13.12201815961080
C         2.73360857598081   10.75754542520294   17.08897022122306
C         8.83597742863732   11.32002874652879   15.71228164642371
C        11.93085609274328   15.04472842284860   12.35368861195662
H        12.65301144226527   14.24443203105343   12.37555987272829
C         3.88036364223246   13.18293606616367   10.66551362279820
H         4.20501460098807   13.57568669158350    9.71555829264877
C        12.31006160862326   16.29965454346614   11.90264053655790
C         1.87450381557722   10.89148571495855   14.88295514964863
C         2.33666266085248   11.98801279759099   12.03127117458853
H         1.42005583841590   11.43630817492627   12.14172690477485
C         1.75377182580732   10.41926364754367   16.17455121824452
H         0.92042871645281    9.79963359552305   16.46084139997290
C        10.12295489795871   17.16459969801790   12.26623735978865
H         9.41361827943037   17.97723132528878   12.23735449316153
C         3.90511310725445   18.86797043949246   13.40413929959523
H         3.88468367040912   19.88913134542557   13.05697538157251
C         6.43593512947860   15.07913924141727   18.41038589355200
H         6.03300142759234   15.83551810134650   19.06420944365139
C         2.68862760557563   12.48656523463644   10.79182720223829
H         2.04854731395564   12.32656615487860    9.93791325612091
C         8.11478170600684   10.17926122260823   13.76109652693859
C         7.62667280088791   14.43092002054684   18.70110416782855
H         8.18256679067941   14.67352985328797   19.59377557702507
C         9.06111722691867   10.35143939042417   14.75442737541212
H         9.94967653522444    9.74292302349751   14.78159839060996
C        11.42521339610186   17.36360474219850   11.85320443090953
H        11.76110984437837   18.32397546760551   11.49589019803511

