68
CSD_code = EGADUN | q = 0 | S = 0 | Stoichiometry = C36H19F6IrN4O2 | MND = 6
Ir        7.41695165779054   11.92235452541372    8.28678604617281
F        10.07222111897585   11.84320784185839    3.73906735924620
O         7.83720129314196   11.51998579235461   12.48101052777501
N         5.86770945432488   13.08350388843763    8.78816171082537
F         5.55777405874929   13.70741734435514    6.13682344525875
F         7.13753767997942    8.84334607557286    7.01214192759946
O         8.95439172101033   13.35753856273401    8.80341401298888
N         7.45624375972554   11.46183894351777   10.33107891171233
C         8.23447561933152   11.97161172384986   11.26901724761541
N         8.98903361221975   10.78913347852035    7.75064751462223
F         2.33450778669931   10.66264087885127    8.81294425406619
N         6.53615924850303   10.68316955209074   10.92721547812576
F         4.94195242827311    7.25654356748284    6.95765079250683
C         8.70054940181387   11.91799316636644    5.69987285474495
C         9.62831189198703   13.49141174667271    9.87680374944972
C        10.12452997786345   13.12372385163750   12.26214370366144
H         9.86907741301410   12.62904397202194   13.18835152307170
C         4.58090443021526    8.72451855614661   15.18828516998492
H         4.01547283262490    8.21063749574625   15.95111326103213
F         6.14314335669591   14.36509996787625    3.58227761582310
C         9.33495401037877   12.85727189120114   11.12803551220410
C         5.96062607675889    9.33761493507159    7.46483127777354
C         5.90129002722829   10.63662045896943    7.94711301613485
C         6.77235245554230   10.72433916686810   12.20025676532025
C         4.64646562746728   11.11089633865971    8.39620349900983
C         7.53614124608957   12.41038324366844    6.33497717821372
C         6.03217485967422   10.04251507355665   13.23299377130327
C        11.19399774556171   13.97392817748470   12.20259919506763
H        11.79450076368509   14.16348709837817   13.07856023061741
C         3.54301665413096   10.25990820919194    8.36354772149224
C         9.50944319437768   11.02536510635844    6.52512224982844
C         4.65126528608976   12.49809736766587    8.85158574251307
C        10.75036542708126   14.36751394232898    9.87140700281946
H        10.98210567641360   14.84830848498590    8.93257583540486
C         6.00672553293981   14.35737523253151    9.13458548024510
H         7.00236915890642   14.77006800685315    9.04244980506191
C        11.50314220233657   14.59701200804680   10.98739381690894
H        12.34849552966562   15.26842697419534   10.93499075880380
C         6.39451549409653   10.16907941317406   14.57310020034484
H         7.24118849126813   10.78272826245520   14.84191901448349
C         4.84600319497298    8.51117218489710    7.42892953148252
C         4.93802468836948    9.25306654028880   12.87521411351967
H         4.67636948925609    9.17156981374222   11.83195636032696
C         6.69883330256206   13.22617517928163    5.58645211228260
C         3.62372715900269    8.96604273539002    7.88825047480759
H         2.75613530992052    8.32761221179687    7.87272673339467
C         3.54620079330919   13.22038844132993    9.29860346685193
H         2.57661445594943   12.75738478695635    9.35138818622247
C         4.21902693352126    8.59850900586738   13.85483665288199
H         3.37245608889236    7.98720205907116   13.58138705704604
C         6.97948688846027   13.57113269497796    4.27171489982648
C         3.69734582646623   14.54374354763066    9.66931829979322
H         2.84693176671588   15.11187714118072   10.01407857009658
C         5.66647746669808    9.50895234078059   15.54436077058375
H         5.94594610372730    9.60596246212936   16.58276709048629
C         9.61217919137128    9.94756062403088    8.56764824491828
H         9.14315142004768    9.76113347061351    9.52318392347230
C         8.12556619712504   13.10310136623505    3.65649484690909
H         8.35443952623558   13.36906855956316    2.63803255171594
C         8.96669036962596   12.28111536553457    4.37955696841341
C        11.35622803364611    9.56336743803512    6.99997846662747
H        12.28231053875071    9.09322479787798    6.70698294005046
C         4.95143466701671   15.12904038674046    9.58268276387128
H         5.11026011899675   16.16082041639434    9.85143610659440
C        10.70473824829636   10.42174303079803    6.13540381351181
H        11.12413246500812   10.61912453998486    5.16482820276310
C        10.79388140124084    9.31092046279804    8.24149439038636
H        11.25752415218050    8.63602807290382    8.94263728132547

