83
CSD_code = EGAJUU | q = 0 | S = 0 | Stoichiometry = C31H48N2PtS | MND = 4
Pt        3.31411086651529    5.15472999864857    9.30737120092926
S         2.80466083417342    5.06076707212221   11.80552815882015
N         4.67574142966254    7.78602185587951   10.44059666856864
N         3.42228726478456    8.15250244751353    8.73882546230220
C         2.54307713881097    3.26292232311408    9.08669032736158
H         2.65669418405831    2.77550155412733    8.11479133957125
H         1.45716461701600    3.30497493649706    9.27101260104964
H         2.95969083417232    2.55361171019702    9.81941666061037
C         3.83077546785862    5.09741045848300    7.31701446113599
H         2.94290001975713    5.25865417174917    6.69653563741013
H         4.27078925111424    4.13989897282871    7.02990242272829
H         4.55965596198958    5.87958665980250    7.08551079204513
C         1.26919065361535    4.15634384933775   12.15566471364917
H         0.44311713658633    4.77300882739451   11.81719542592039
H         1.19925441474317    3.99610123141089   13.22903961565510
H         1.26574420058144    3.20988757493563   11.62446189805329
C         3.97868937092058    3.83361420090501   12.43098599809587
H         3.86090105774364    2.90096729117883   11.88687482540103
H         3.79631388019168    3.68610646686060   13.49306793671812
H         4.97565914034274    4.23247925241153   12.27759802894179
C         3.91201369240232    7.15786946055450    9.51329396257175
C         3.88117869657161    9.37559386775045    9.16714255632031
H         3.59773055836338   10.29151009780128    8.69170044672995
C         4.66990597805469    9.14582777696712   10.23697544766217
H         5.23465477727409    9.81837627501926   10.84799837995536
C         5.36624878617575    7.17683046138442   11.51799668784413
C         6.44970118648940    6.33218113357560   11.25419835254513
C         7.12016401002087    5.76568990513695   12.33219807730569
H         7.95237607574357    5.10300302975373   12.15151424684133
C         6.74365130868729    6.04222115490069   13.63139104845892
H         7.28020951685223    5.59735059535720   14.45659520031453
C         5.68273579788573    6.89282649961879   13.87464007376251
H         5.40380364214310    7.11013459170202   14.89386866619775
C         4.97330065085836    7.47136120808092   12.83136076124751
C         3.83442183670138    8.41556237098946   13.14816994975243
H         3.30671624936997    8.66770052024410   12.22447599136647
C         2.81018948211183    7.78600550995784   14.09410837939381
H         2.43657036322116    6.85591863184701   13.67584324732460
H         1.97311783945542    8.46740832432788   14.23072932984349
H         3.24265708634004    7.58253044956375   15.06999233019754
C         4.38343392100559    9.70718841579518   13.76374328108155
H         4.85934124458675    9.50130211306905   14.71960527932716
H         3.57548337403328   10.41695352383439   13.92758260646955
H         5.12255261713381   10.17205043503378   13.11494620117522
C         6.90888842549883    6.02116815513058    9.85057843779788
H         6.34895061683298    6.63762192292431    9.14253742599304
C         6.61081064904789    4.55730114773527    9.52098842403562
H         7.08297084704543    3.88844418576140   10.23690185324748
H         6.97637863250011    4.31814889740147    8.52603463497360
H         5.52185202004209    4.39381727086965    9.53191110954894
C         8.39545923913314    6.33997086860335    9.67227923807221
H         8.60798196464015    7.36493320242345    9.97157608680908
H         8.67194460833344    6.22162757852130    8.62714581622844
H         9.01884349739992    5.67390019756935   10.26312981270467
C         2.55951973926537    8.03365541493043    7.61456592240401
C         3.04131416576256    8.42602272856805    6.36114347755133
C         2.16871701597316    8.40434631623848    5.28091190356441
H         2.51783603186148    8.70633717091327    4.30586472463640
C         0.85939254163684    8.00169727679677    5.43794342777543
H         0.19039263777232    7.99482501535625    4.58998984951535
C         0.40252619482773    7.59999879968777    6.67872683625416
H        -0.62198500384141    7.28255778683085    6.77562591442678
C         1.23518903732488    7.60419971087990    7.78860294189982
C         0.73321976755430    7.17112768639398    9.14838231411733
H         1.50586631256772    6.50613925341779    9.57890726150014
C         0.53876110797732    8.38367038399132   10.06398795983662
H         1.45232494512761    8.96356011526740   10.16686305999256
H         0.23086677920571    8.05873359150547   11.05596613223468
H        -0.23338286431444    9.03751409887496    9.66021797487801
C        -0.55858323522900    6.35911067700481    9.09373810633850
H        -1.40400714121576    6.96551356272599    8.77360421154520
H        -0.78751996728680    5.97693246146471   10.08701079795417
H        -0.44489686835921    5.51272008968055    8.42156733580400
C         4.47325058894780    8.86096106391519    6.13555188672418
H         5.04803686023862    8.70840758638157    7.05376989393178
C         4.53509948581415   10.34699858527226    5.76911310887943
H         4.00667232434079   10.53289322339207    4.83729727851960
H         5.56998205379947   10.65891296350402    5.64522465786118
H         4.08150093313150   10.96395346146491    6.54173691685218
C         5.13683910591340    8.02617172572535    5.03670445099135
H         5.02833231645010    6.96533122011619    5.24677316925386
H         6.19741245328580    8.26352561418773    4.98246705640735
H         4.69406576500634    8.22996178094638    4.06560391043428

