98
CSD_code = EGAJAY | q = 0 | S = 0 | Stoichiometry = C47H43NO3P2PtS | MND = 4
Pt       15.90748289800986   18.57768282037731   -0.82061167991828
S        13.02934381261372   19.10010661008954   -1.02988387358378
P        17.69548897973283   17.25078696502273   -1.12805359658169
P        15.00734244336219   16.80580287688102    0.27796739291898
O        13.08776335357845   17.66712433757022   -0.71013123511984
O        12.71945126261942   19.41335653448471   -2.40167036935363
O        16.54375659477120   20.16346208285247   -1.92578018871811
N        14.33514362462747   19.76840975487479   -0.42309792441318
C        14.60780166167837   21.12771554332117   -0.84100856507984
H        13.66134006854736   21.63645411558414   -1.07681806125187
C        15.49096454366822   21.03113252291580   -2.13709376670651
H        14.81141975094966   20.65375452121413   -2.92905769098737
C        15.35556587982577   21.88121070436963    0.22131817389510
C        16.23403253228912   21.22925401458641    1.07784143328670
H        16.30882524547309   20.14298550424132    1.03979225630446
C        17.00704348180595   21.94499646972154    1.97483930152092
H        17.69498201988995   21.42411589722782    2.62641440620933
C        16.90277723279119   23.32363075102815    2.03657463354725
H        17.50694805991215   23.88466615898458    2.73503205130668
C        16.01530432949090   23.98049640299793    1.20004839056706
H        15.92393973844969   25.05612277481529    1.24587488590909
C        15.24902419302518   23.26574670139916    0.29867937890054
H        14.56588683611683   23.78418441051315   -0.35881046855764
C        15.97593293795098   22.40431712111034   -2.53109721972850
C        15.13521029379503   23.26779573102922   -3.22222147237369
H        14.15122074721127   22.92800470866145   -3.51586025066047
C        15.55096575838860   24.54989391141208   -3.53076824685623
H        14.88968617037313   25.21645023000795   -4.06675032353097
C        16.81326623324874   24.98066136625824   -3.15612561363640
H        17.13648702321522   25.98331676326633   -3.39761209289533
C        17.65881129574764   24.12020690633620   -2.47749172869056
H        18.64635988291739   24.45032982485936   -2.18738127134005
C        17.24200971191301   22.83934526069725   -2.16508787739791
H        17.89161500134669   22.15545609556804   -1.64079483425663
C        11.68906401237355   19.72065298982596   -0.01047225320843
C        11.92080107822648   19.88336339975518    1.34196823396883
H        12.90696728375319   19.68022845256410    1.72916518200148
C        10.89290056262828   20.30617564815265    2.16278024364553
H        11.06775667705888   20.43359474080207    3.22137716910993
C         9.63020969632392   20.57228925776341    1.63891450125508
C         9.41978466243134   20.40740582768053    0.27545841965078
H         8.44554209177380   20.61379932264509   -0.14398378598678
C        10.44639268938804   19.97951509990236   -0.55062115728746
H        10.30387196085884   19.84666243996164   -1.61176270825100
C         8.52738080755569   21.03444178057277    2.54249165072983
H         7.60005849516831   21.16700531465970    1.99175207058638
H         8.79400099714123   21.98251311129534    3.00778012809165
H         8.36100408501761   20.30994170139794    3.33822872243295
C        17.52402975711514   15.70639156771361   -0.10757591786061
H        17.13509547708131   14.91547023986336   -0.75547311127766
H        18.49769672858275   15.39813828630009    0.28397743822384
C        16.53196345492419   15.97332123644292    1.01965991480791
H        16.97781242009691   16.65676554099944    1.74799976332370
H        16.27015410219760   15.04572182425853    1.53670291720003
C        19.27919205212930   17.97454016585236   -0.59472957322365
C        19.28855830896054   19.32027839504194   -0.24558956481878
H        18.36596847257714   19.88197926854937   -0.32207889604319
C        20.46740072527717   19.91985444444847    0.16126653558287
H        20.47420220726841   20.96489741892135    0.43370744677880
C        21.63726689553475   19.17982166901923    0.21562070520559
H        22.55824404514147   19.64512940596731    0.53502509776184
C        21.63322985786967   17.84234237903339   -0.15035936507261
H        22.55024418273483   17.27187358056454   -0.12036840159723
C        20.45877668646014   17.23776534293104   -0.55903901583219
H        20.45928496614095   16.19929797728235   -0.86074988036556
C        18.08116751948722   16.69426463662653   -2.81245757452082
C        17.85548047374693   17.64578876576039   -3.80506203321015
H        17.47037217114255   18.61707570033428   -3.51500897712152
C        18.11496647292494   17.33871052812084   -5.12738368248512
H        17.93837086424498   18.07425675835013   -5.89797297667919
C        18.59564863022667   16.08242290967331   -5.46381555961724
H        18.79346478466934   15.83791937165356   -6.49718878156637
C        18.82119803347679   15.13657159967257   -4.47738953199812
H        19.19592516939195   14.15852314101389   -4.74280656923667
C        18.56778025112877   15.43764304872442   -3.15012032980426
H        18.74638874180134   14.69286369895424   -2.38786949902797
C        14.54882470412022   15.43873618464883   -0.81849248593044
C        14.68411128321797   15.65526031068760   -2.18528226720268
H        14.95473049837580   16.64659665155100   -2.53479266546849
C        14.44967726459897   14.62743713044413   -3.07928540214449
H        14.55898063003949   14.79814134168015   -4.14017720362227
C        14.07317667334643   13.37825189789312   -2.61081202389671
H        13.88448520457866   12.57403133017477   -3.30697912605222
C        13.93575618204119   13.15907769590359   -1.24969175948164
H        13.64035146475702   12.18481928069193   -0.88698395540837
C        14.18139746911379   14.18324447555482   -0.35103784629330
H        14.08578997862579   14.00831830803449    0.71206918017903
C        13.93608448480493   16.85152914640903    1.73684895942797
C        12.66515824064500   16.29094670410514    1.75889608474969
H        12.30563698523575   15.76401228885132    0.88861269431270
C        11.86238446423269   16.44702029653957    2.87427165734965
H        10.87362421912341   16.01184405690262    2.88909142143923
C        12.31597832180060   17.16770622488647    3.96737704453939
H        11.68277216789010   17.29063277517613    4.83389508715506
C        13.57630009104882   17.74233943276727    3.94298312374541
H        13.92567045840934   18.31860979386493    4.78762927463139
C        14.38209282317843   17.58916795231492    2.82940041899439
H        15.35630423901115   18.05918233771816    2.79208884194632

