60
CSD_code = EGAJOO | q = 0 | S = 0 | Stoichiometry = C24H32N2PtS | MND = 4
Pt        5.05489914898905    5.05824752522781    5.04822166051505
S         5.82541075009372    5.73189965895311    2.76655647802649
N         3.06731054748397    7.36655013128103    4.60649715208162
N         4.01427924648387    7.48946716714236    6.52858691727203
C         5.80125646882944    3.14207453312133    4.93474238483673
H         5.92972613156727    2.78670131610660    3.90186446617052
H         5.18163844550828    2.38567984399994    5.43117667926097
H         6.78950831365303    3.07758878511504    5.40977976219095
C         7.59503247666290    5.44293276092012    3.05569782835265
H         7.87141736846281    6.03192266717516    3.92646606204956
H         8.15812988514510    5.77140080046111    2.18466270986634
H         7.76898861394119    4.38989511282487    3.25452010224206
C         5.53597372015109    4.50418086028383    1.46162514058736
H         5.74419943763524    3.50490455966876    1.83181825469084
H         6.17328354517890    4.74104089934363    0.61396803433245
H         4.49146940122930    4.58923761597819    1.17956348276546
C         4.60660618658369    4.78018852413658    7.04841847941254
H         3.51037993282981    4.86681611735369    7.12541766191775
H         4.90780662066788    3.81332816522495    7.45691315111438
C         5.26699644967810    5.87454480638765    7.79925613383769
C         4.93630825175331    7.22409196883095    7.56756091825789
C         5.55282218414466    8.25586626596717    8.26778694958647
C         5.26625291066098    9.70428922938268    7.98973576198091
H         4.43680774112126   10.06088767813888    8.60183293850081
H         5.01601204056985    9.86857827918206    6.94344970391580
H         6.13832704985323   10.30668392961453    8.23465436676422
C         6.48869485184762    7.92847493726666    9.24234066545051
H         6.96776016295622    8.72548660657232    9.79342596180112
C         6.22236508246061    5.60320116982470    8.77357850531000
H         6.49186859667876    4.57440207973643    8.96284253529317
C         6.83472559111827    6.61190477796852    9.50169137383137
C         7.84290634138728    6.27416444377212   10.55894650161137
H         7.33994344502566    5.87818267616410   11.44155403638658
H         8.40955400269732    7.15387371423957   10.85448050572194
H         8.53320875465428    5.51352729853039   10.20001959460972
C         2.79120478600843    7.04127389068866    3.25428942178438
C         2.27469817723737    5.78402838573993    2.93251871147173
C         2.00013357435258    5.50839743144790    1.60014696281795
H         1.59737751721102    4.53965347652733    1.33877892710180
C         2.23267408799148    6.44052690902810    0.59935267885425
C         2.76743679541701    7.67280315373629    0.94698285714572
H         2.97150367471332    8.40039923035543    0.17455778047708
C         3.05594248647422    7.98846477660595    2.26536509446466
C         3.67362212028322    9.30625920461276    2.62411166608589
H         2.97560772266720    9.92786373385077    3.18473021842977
H         3.96808871227245    9.84556084286918    1.72791458096060
H         4.55609797248742    9.14894295128499    3.24338159355333
C         2.06542992023747    4.74969604653575    3.98882836190425
H         3.05630069737307    4.43305060458354    4.39049998127555
H         1.55879989489752    3.87745570098448    3.58617969954840
H         1.48552027156980    5.14627437267801    4.82109239820379
C         1.90359706208403    6.12319986908920   -0.82806230828839
H         2.05609170490774    5.06651927508370   -1.03699412083965
H         2.51566057792397    6.71057834128781   -1.50834050630472
H         0.85716023987752    6.35609915900370   -1.02822324545249
C         4.10585653806691    6.88745510608047    5.32277734110542
C         2.33708848686084    8.25775211096511    5.35398084670821
H         1.46038783329082    8.74139087386253    4.97366909797613
C         2.93378790154121    8.33188120077806    6.56616186105595
H         2.65506154650945    8.87985644633433    7.44154723941683

