39
CSD_code = EGAKAB | q = 0 | S = 0 | Stoichiometry = C14H19Cl2N3Pd | MND = 4
Pd       10.32733915909689    5.24653901550264    7.60704844648091
Cl       10.62074648006209    3.95689197655589    9.38471360303660
Cl       12.45954765978833    5.84929005755267    7.54231419477581
N         8.37070843560320    4.74078328946848    7.52419548084162
N        10.09178739041219    6.51593216130060    5.83431375854309
H        10.14783364608752    7.49610850271202    6.10573303238532
H        10.99920580852750    6.26572221212467    5.42959108408889
N         7.76818014784136    4.62291521729435    6.33712852571733
C         7.45208812188328    4.54483245715378    8.45386321516125
H         7.71322270776975    4.57476276662977    9.49495922633115
C         8.98057268564162    6.23860963202594    4.93023262715025
H         9.26307127737899    6.38655788427713    3.88008574709215
H         8.14879532880414    6.91220242500378    5.15824427006261
C         5.55126831867260    4.14781001393586    5.34577946381024
C         6.44937574831718    4.35245783517190    6.48998380188945
C         8.50388792038601    4.78508456865434    5.11092661076909
H         7.84937509049113    4.49594258988652    4.28580025176989
H         9.38779694030171    4.12500396840253    5.13881415686277
C         6.21580913108185    4.29858532958533    7.85049660369624
H         5.28279315931801    4.09721862550241    8.33416620762334
C         4.72333209105870    5.18608404675866    4.91556377352303
C         5.53101245240014    2.90769975937629    4.70047832846315
C         3.85807448718419    3.75309436950253    3.16900649361773
C         4.68295298288331    2.73077653066323    3.61903008326269
H         4.66018917152836    1.77348426099224    3.11848557852155
C         3.88898539891098    4.97300644944223    3.82892920290515
H         3.24678717991842    5.77456389710883    3.49335277539139
C         6.40804884709786    1.78845539535241    5.17571394022461
H         6.06058257422850    0.83829170501359    4.77896845282038
H         6.41197659071147    1.73477241954106    6.26261910997773
H         7.43743810277533    1.93439452526288    4.84685474413253
C         4.71844185455570    6.50239668987074    5.63321017821245
H         4.15355191694917    6.41660656830638    6.56122686782502
H         4.25423514438137    7.27231343423937    5.02240049879897
H         5.72707943765266    6.81810323459065    5.89314449691912
C         2.96681378422204    3.54140090350858    1.98449980144141
H         3.53893052679522    3.65548004854699    1.06317106766524
H         2.15613491926800    4.26530788155397    1.97214584092952
H         2.54582738001242    2.53861735162427    1.99320845727660

