39
CSD_code = EGAKIJ | q = 0 | S = 0 | Stoichiometry = C17H15MnN2O3S | MND = 8
Mn        4.03773940807285    4.88696850095865    5.34160024470351
S         0.47289526642589    2.37404036476857    2.39128630849597
O         4.05510030205925    2.87151680975045    3.20737339350689
O         5.35691629388621    7.02301465326121    3.82925320824660
O         6.55174577471036    3.90749886353518    6.48748762244557
N         1.28610231151033    4.79083087310704    3.09393278153464
H         1.52209678541058    5.73208805621719    2.81101452748026
N         1.61027546520844    4.14895432316982    0.88218512938308
H         1.34076397975974    3.46462782674160    0.18766478925068
C         1.84891981260365    4.92784508476154    5.45727578565839
C         2.36553725431050    6.20923718357546    5.77234077090052
H         2.06155210025668    7.14586944764858    5.32255817741100
C         3.19680899332403    6.08606490357309    6.91704355103494
H         3.60340406085894    6.91062184317938    7.48737531046075
C         3.17845735963552    4.73124356585926    7.32303758175406
H         3.60019818337872    4.34058849025410    8.23910040138872
C         2.37156328696824    4.01186890686872    6.41361488543125
H         2.05023662598849    2.98520760234473    6.52703369069095
C         4.06099702149589    3.67454690838153    4.02547939623870
C         4.85378785844963    6.15885999995121    4.39909395387909
C         5.58357993238819    4.29046545431521    6.00621313573081
C         0.78049488855512    4.61171717677997    4.44094807221735
H         0.51096262260696    3.55061135480372    4.52002690591488
C         1.16686422133844    3.85272185353390    2.13099873617374
C         2.33353765659067    5.25210638921254    0.41751601108929
C         2.08469282751618    5.70379154094660   -0.87863205297067
H         1.34160044130032    5.20064424736892   -1.48031400285532
C         2.77980588609119    6.78323217647838   -1.38722199578456
H         2.57464997983366    7.12468010540096   -2.39077426233749
C         3.73455584671345    7.42613002158687   -0.61542784344145
H         4.27404109159545    8.27186816591207   -1.01276778854841
C         4.00579629662233    6.96380074690691    0.66067728028957
H         4.76741871645756    7.43628687089322    1.26210619902751
C         3.31788864771496    5.88046883076780    1.17785732806808
H         3.58348183477265    5.49979746349308    2.15578870959168
C        -0.46741074183542    5.46875365774294    4.67212908954041
H        -1.25022750651379    5.16654980125008    3.98074614850312
H        -0.24945461517986    6.52379101100045    4.51441304617781
H        -0.83007617088418    5.33488892369233    5.68836577372193

