61
CSD_code = EGALIK | q = 1 | S = 0 | Stoichiometry = C28H28CuN4(1+) | MND = 4
Cu        0.69959597872068    2.40541449456214    3.51477839644801
C         1.14950451739833    1.30156678961600    0.75052060478276
H         0.82113651834552    0.38356561744198    1.21748782336998
C         1.46485751744545    1.35093096121276   -0.59436868689941
H         1.38836473922930    0.46754562745108   -1.20685329509924
C         1.88196944244988    2.56181193374220   -1.13045035598062
H         2.13826656647256    2.64236129928288   -2.17546419371193
C         1.96197660299087    3.66623342298502   -0.30003520944879
H         2.28036542907424    4.62373713130231   -0.68185853306695
C         1.62595693516903    3.52803367371622    1.04146545759310
C         1.72116396441514    4.69789790044249    1.98576761835421
H         2.78539947309728    4.93985471505310    2.12412562092427
H         1.25040021238560    5.57602368579785    1.52348211624595
C         1.13848535370268    5.23006814006891    4.21516912609640
C         1.83615377977255    6.55136621105198    4.14730819487536
H         2.90157524175714    6.40393951469495    3.96446984469368
H         1.70144856287248    7.12115386709261    5.06077058478312
H         1.44043053584371    7.13336408122600    3.31429893489936
C         0.44713205691023    4.86257165072845    5.45866139191256
C        -0.81382194076846    4.27037744035825    5.40145475079894
H        -1.28372332302679    4.12702223755774    4.44062609958544
C        -1.47013933701620    3.90899774313302    6.56283567808341
H        -2.45312281611729    3.46524342076606    6.50935342544133
C        -0.87112703870250    4.12007480563950    7.79528207695270
H        -1.38254241291018    3.83660647063306    8.70272840087625
C         0.38157017097016    4.70887298865639    7.86058948990150
H         0.84652889938189    4.88320369292161    8.81968605859724
C         1.03439434142557    5.08801659946855    6.70128392213395
H         2.01108470542178    5.54394281790605    6.76268160233494
C        -2.01375997450936    1.10342252226448    3.46124745590618
H        -2.07715611275956    1.60299902891463    2.50467403328582
C        -3.04007662984593    0.30033338143535    3.92206687583284
H        -3.92937095545130    0.15616221419746    3.33069549659941
C        -2.89521675850009   -0.30988499663992    5.16070240231921
H        -3.67373262905467   -0.94322833381156    5.55695438054923
C        -1.73197308948967   -0.09304832598810    5.87883242211776
H        -1.58376527045715   -0.55224546607045    6.84379269529501
C        -0.74930173319960    0.72904637456842    5.34023356966910
C         0.52334013937025    1.01008858322172    6.09604612912715
H         0.27403833768001    1.63367235010375    6.96735032292304
H         0.93075080274050    0.06643562035251    6.48328570448444
C         2.60681700221886    2.06813582509011    5.72362026131596
C         3.00931392516585    1.92545868755862    7.15702074958610
H         2.31723808618167    2.47490628587664    7.79694348257607
H         4.01944659707221    2.28413999655294    7.32512214605745
H         2.96051074809287    0.87617474513780    7.44991096884960
C         3.54917667955066    2.69422771453726    4.78575825108273
C         4.25200940783856    3.84546205643154    5.13225812962528
H         4.11358650686042    4.29027822935600    6.10618851318101
C         5.11172965457593    4.43747603917792    4.22424647121770
H         5.64914424217735    5.33300656476797    4.49938363956412
C         5.29567715273703    3.87770844995333    2.97004232972709
H         5.97669235514487    4.33577337458388    2.26878987889106
C         4.61342108776289    2.72127536560349    2.62444856276219
H         4.76705894358357    2.27335564980227    1.65400199872285
C         3.74024879523352    2.13671949112317    3.52212186622595
H         3.22155840986312    1.22567645831555    3.26621663767503
N         1.23163671997635    2.36252739963303    1.54555538366938
N         1.09802955987895    4.39999361969088    3.24559451404551
N        -0.90068115045332    1.31302351900238    4.15520471072008
N         1.48842447330400    1.66522864074899    5.25749307091709

