102
CSD_code = EGAMAD | q = 0 | S = 0 | Stoichiometry = C37H60FeN2Si2 | MND = 5
Fe       11.96224187856339    1.83320952121683   13.25735246438092
Si        9.23118845660373    3.33864157661788   13.67954575820792
Si       11.49674982213649    1.88770210466888   10.09977117633787
N        13.32038525302803    1.30059620931208   15.91295294014262
N        14.72505574929737    1.33686702238884   14.29595879798486
C        13.38839730075617    1.38532854879340   14.55205412696767
C        12.00458042773992    3.67281508046705   14.05381004621757
H        11.72850882193230    3.66233382354173   15.09978464078385
H        12.88771222210159    4.27082288904659   13.85772911857986
C        10.98155687716095    3.62444031625627   13.09136464298002
H        11.16156171440129    4.12839997898826   12.15133372206027
C        11.75437060429984    0.11640028161533   12.25998354164632
H        12.66027301713079   -0.14448884438872   11.72749685901855
H        11.30804761564794   -0.72944407267251   12.77015592507916
C        10.90591994762575    1.08570721176036   11.67988734188484
H         9.84417471861672    0.97533385249986   11.86004818686667
C        14.57510198028779    1.20669555545805   16.47142337885440
H        14.72564147507236    1.10951474547788   17.52618178809975
C        15.45818240350853    1.23521214094263   15.45617411295258
H        16.52806942440551    1.19548432189937   15.45418019562073
C        12.16054274324549    1.21709680032419   16.72420180528027
C        11.86805735611801    2.24486019061943   17.62699283377511
C        10.76785247686412    2.09218462159306   18.46217196284932
H        10.51919561156955    2.87213328666875   19.16471848788309
C         9.99521736602088    0.94985084669548   18.42011101571249
H         9.14855047406086    0.84652608023391   19.08267565269292
C        10.31236575122813   -0.06954559135741   17.54148305501397
H         9.71205535249018   -0.96436724694719   17.53580262704538
C        11.39190408963637    0.04569951274649   16.67936459051168
C        11.78639866094010   -1.07993957642434   15.75172971530518
H        12.19793633636846   -0.62635674787337   14.84301112940067
C        10.61301629364882   -1.96341829812052   15.33411385086348
H        10.26501464135638   -2.58170521829315   16.15855618997368
H        10.92730396137516   -2.62776025995540   14.53184308911034
H         9.78771437163497   -1.35554709736230   14.97331259206101
C        12.87312372423772   -1.93271965536319   16.41662733112444
H        13.75657758543804   -1.33931849608603   16.63958014441189
H        13.16512387823953   -2.74594947608228   15.75621294606495
H        12.50208027865948   -2.35903507555979   17.34700482433852
C        12.73667994500619    3.47650686462627   17.76240905975341
H        13.44942991172354    3.50133863662854   16.93295527353871
C        11.92428994110335    4.77292896642590   17.71848732526170
H        11.30803842455199    4.81604336401735   16.82441237892670
H        12.59893404106926    5.62640379471420   17.70847265680298
H        11.27819997889799    4.86517037299371   18.58765145243787
C        13.52016697585653    3.41551669971303   19.07888513251416
H        12.83932405983528    3.43421671295139   19.92674799594221
H        14.18955729507113    4.26949754725543   19.15574070831778
H        14.11432313968473    2.50747505974801   19.14617313442115
C        15.37225401812971    1.33987923391170   13.03341455332740
C        15.50637262691736    0.13505789520788   12.33306303170730
C        16.20844777194992    0.15020844053867   11.13622686377353
H        16.32763454501801   -0.76008653004067   10.57137993478214
C        16.77724202524305    1.31736780932878   10.66105413418166
H        17.32340317136656    1.30801760449531    9.72917289599199
C        16.66627580694670    2.48953565951288   11.38224831855633
H        17.13673725859256    3.38675863760180   11.01178374408197
C        15.96298659785386    2.52245447377529   12.57897013311696
C        15.89248866494571    3.79674098268965   13.38853632470853
H        15.15702558724601    3.66262510731077   14.18720027656960
C        15.44856701296477    4.99311850283457   12.54617604420017
H        16.19407537649957    5.24924096111764   11.79783727551256
H        15.30258156786631    5.86027534065036   13.18731815675825
H        14.51167414142417    4.77398198452677   12.04197066049162
C        17.25566853313439    4.07966767488529   14.02849686471220
H        17.56238573403544    3.25832034589683   14.67202172647273
H        17.20707335982720    4.98553558038786   14.62879239917650
H        18.01597382304105    4.21381644951562   13.26241426301248
C        14.97663264645072   -1.15471489753597   12.91812267084186
H        14.07887615893902   -0.91908481396302   13.49572935890188
C        14.60262635981196   -2.19579328179652   11.86324569727090
H        13.98884065166938   -1.75820008386692   11.08062072874848
H        14.03553287527783   -2.99777483271101   12.33053970341748
H        15.48877168418698   -2.63456048747608   11.41025895919274
C        16.02708024389438   -1.75132776217199   13.86333200961076
H        16.95982581348038   -1.92376045273778   13.32949545958778
H        15.67502205371421   -2.70121889189833   14.25918784451182
H        16.22684510992470   -1.08728415931479   14.69981573827685
C         9.31981137672873    1.65846327505500   14.60790577536224
H        10.34173796303848    1.25806999073494   14.53004559683997
H         8.64426936524344    0.91944542526735   14.19040967164628
H         9.08930165090675    1.75451459661751   15.66399962121633
C         8.62849769417577    4.65103866395085   14.94252115858994
H         9.19913495981327    4.60806227414432   15.86462436788164
H         7.58400165081077    4.50053609568111   15.19890341956272
H         8.72620190209485    5.65506479579354   14.54228371144700
C         7.93168653975709    3.28844635452865   12.28614764330032
H         7.80708201939512    4.27084597803911   11.84352804865628
H         6.96368924231448    2.97656523142995   12.66577717243968
H         8.21723498620172    2.60632946386151   11.49492616200559
C        10.34293938642939    3.22121186561413    9.37409891836748
H         9.42357034660383    2.77498855566061    9.01068481770543
H        10.81169307582160    3.72879989599895    8.53666283343121
H        10.07464502043137    3.96856761114668   10.11087626254099
C        11.83168683189802    0.62355791678321    8.69687143371439
H        12.48074456345543   -0.17719518073716    9.03612523661233
H        12.30835554237655    1.09305247070546    7.84132570215007
H        10.90875898309180    0.17040886931550    8.35022418546179
C        13.18728425003354    2.64305588932409   10.60651874508244
H        13.31149295404906    2.54023518338681   11.69481797424828
H        13.26180608528258    3.69657439241833   10.35895914031936
H        14.02465801339610    2.13770501224310   10.13719890393778

