152
CSD_code = EGAMIL | q = 0 | S = 0 | Stoichiometry = C63H85FeN3 | MND = 2
Fe       -0.98540432623668    4.84939204420348    4.99814078825710
N        -0.98542155664852    6.49170843284822    4.99789903150983
N        -2.03552784946169    2.09367628621583    4.72912541210688
C        -0.98546176951043    2.95914583353585    4.99804254526586
C        -1.63699024370533    0.77719895800878    4.83001824124219
H        -2.31975069911998   -0.03051242814833    4.66075977240538
C        -3.35133305827751    2.44703781108373    4.33970368994045
C        -4.29329919765152    2.75089076163502    5.32510131872922
C        -5.59181484270219    3.03942936934675    4.92889126129875
H        -6.33519203579725    3.29476618970078    5.66688872864517
C        -5.94420368054453    2.99705426709070    3.59337445636206
H        -6.96050369816468    3.21401737993172    3.29831380917740
C        -5.00318133050949    2.68388869848488    2.62888598474896
H        -5.29889137583712    2.66319725618343    1.59256386852198
C        -3.69163205819176    2.40397231534890    2.98239150927554
C        -2.62886823127416    2.10622325714636    1.94943400644639
H        -1.88944994591170    1.43400324862040    2.39837511273379
C        -1.91878112134914    3.41064462571026    1.57269167225680
H        -2.61189279397462    4.08611078978150    1.07809535089840
H        -1.09159461523436    3.20691554243015    0.89666695551413
H        -1.52953663137517    3.91165483795655    2.46529834715379
C        -3.17323632085746    1.41548399687276    0.69989233946710
H        -3.78058888530964    0.55369630939171    0.96823642324797
H        -2.34601591012722    1.07340462146371    0.08150930762493
H        -3.77481198244319    2.09599695406323    0.10282806491426
C        -3.87875706958701    2.79668358216847    6.77541105573777
H        -2.96802481063335    2.20076349166971    6.89740673737804
C        -3.56100651259736    4.24653073946034    7.14321378801750
H        -2.77501624321282    4.65390179429485    6.48227106722427
H        -3.21614464582787    4.31554186998105    8.17125334245321
H        -4.44227406336747    4.86942526740287    7.02704404838586
C        -4.93678058877040    2.21517262493782    7.71293837223828
H        -5.82279841196045    2.84289745460530    7.74853291755387
H        -4.53551202647588    2.14419827179124    8.72173324698560
H        -5.23133682680945    1.21912060438308    7.38867311854812
C        -0.98533016033387    7.80711233343119    4.99801023415231
C         0.10966470539560    8.56177834458129    4.47514868163103
C         0.09698647743285    9.94272982154477    4.50409064581911
H         0.95742509776984   10.47045473768310    4.11252483945892
C        -0.98525582212959   10.65238899591939    4.99815628394614
H        -0.98524209363806   11.73171049439088    4.99818293534977
C         1.31015679486083    7.91540450915563    3.89213239944615
C         1.46779092339595    7.88505854532873    2.50042445053635
C         2.66686123794095    7.44693083923886    1.96309057101150
H         2.79765451501244    7.44554603138336    0.89338059548352
C         3.70963264715453    7.01508879292532    2.77158766122499
C         3.51557168635097    6.99711962630505    4.14417391535685
H         4.31170152439111    6.63502631730610    4.77968495872932
C         2.33531318789583    7.45071114682777    4.71616025458234
C         2.14846048535638    7.41875453691635    6.21421085433143
H         1.24687568044266    7.98868798301130    6.45637949026978
C         3.32069277377655    8.05081805547559    6.96507381760277
H         4.22901303174017    7.46438947921267    6.84937931102304
H         3.09220758035260    8.11363662095596    8.02718854189788
H         3.50785941664697    9.05555932655342    6.59315718098182
C         1.93409701338744    5.97176181565503    6.65965765326033
H         1.07191617974461    5.53783406829029    6.12480134432864
H         1.73789182890856    5.92847751018707    7.72792143255551
H         2.81110877131702    5.36924204763439    6.43912739443596
C         5.04609893402813    6.60946296448825    2.19445248975322
H         5.58452994202159    6.03555486861772    2.95891566646756
C         4.92225102957390    5.73805520325526    0.94399646852967
H         4.24328892536709    4.90651085297933    1.11807733520901
H         5.89697769342319    5.33923915651835    0.66876048917461
H         4.54791419742135    6.31534951423042    0.10258417738073
C         5.86107146293912    7.86850081081005    1.88376414469449
H         5.34563535392047    8.47531911186351    1.14253631004248
H         6.84269400648916    7.60392190323517    1.49522612244518
H         5.99128691547705    8.46645244393306    2.78305214722260
C         0.30449296338374    8.27408875532688    1.61576450251877
H        -0.28439889340313    9.02753939691500    2.14721422153128
C        -0.58497391898609    7.04238720020212    1.41308841736515
H        -0.05200082722015    6.28193958000584    0.84546572600831
H        -1.48816135820818    7.31214119869210    0.86943951201111
H        -0.86744314510552    6.62001984438053    2.37743359214540
C         0.71728235884501    8.86599135232313    0.26927862485428
H         1.44276671175316    9.66456910103805    0.40817257673555
H        -0.15542071982369    9.27941260815405   -0.23262306576970
H         1.14818221601813    8.10968648973000   -0.38340322789676
C        -2.08026860250966    8.56178109343044    5.52098056079310
C        -2.06751985134028    9.94273305318310    5.49217517252980
H        -2.92794054141873   10.47046749925441    5.88376766777315
C        -3.28075201088711    7.91535871183189    6.10396195587651
C        -3.43835324873881    7.88486562340107    7.49566991458253
C        -4.63738628248867    7.44662937979470    8.03300383175444
H        -4.76813244675544    7.44513442379791    9.10271662491996
C        -5.68014801005506    7.01478783821752    7.22449982398975
C        -5.48611894501592    6.99696025376959    5.85190626633750
H        -6.28223241684008    6.63484511249891    5.21638747648069
C        -4.30590682391558    7.45066995131678    5.27992604236471
C        -4.11911007513809    7.41875545143264    3.78186873063891
H        -3.21749333175933    7.98862638564077    3.53967752967837
C        -5.29133427414531    8.05093637238310    3.03109212386322
H        -6.19969010817040    7.46456849966540    3.14681790426542
H        -5.06290227622445    8.11377144723106    1.96896758082864
H        -5.47841046054136    9.05567878133991    3.40305199638586
C        -3.90488765980454    5.97175572365249    3.33636775775902
H        -3.04278276921979    5.53771032487159    3.87125316145752
H        -3.70863206318144    5.92848593265996    2.26811328393211
H        -4.78197497250856    5.36932131106660    3.55683422738282
C        -7.01660337938133    6.60901686361962    7.80155664052165
H        -7.55462580794444    6.03443723694523    7.03730722249590
C        -6.89282738130168    5.73846726831338    9.05261310914321
H        -6.21339889948123    4.90713513808569    8.87933391341088
H        -7.86747349011174    5.33935765489832    9.32770769311848
H        -6.51912475197902    6.31647794472917    9.89381656825483
C        -7.83207402851155    7.86799299241373    8.11120032041704
H        -7.31699283217698    8.47549544871100    8.85211699351798
H        -8.81369264848739    7.60335712767403    8.49970686325311
H        -7.96228698380260    8.46527512239410    7.21146744883155
C        -2.27503912757482    8.27379711536027    8.38035260788306
H        -1.68615172919210    9.02731620067400    7.84899556592068
C        -1.38559648917484    7.04204534145198    8.58282651349156
H        -1.91855500332003    6.28156549738440    9.15041939878184
H        -0.48234910259283    7.31170526714198    9.12642050612680
H        -1.10323449070697    6.61975969698724    7.61841251572076
C        -2.68778083914976    8.86550123789890    9.72694108050240
H        -3.41328182288567    9.66409009983499    9.58819786018874
H        -1.81506421430160    9.27885481427880   10.22887574417020
H        -3.11864598034676    8.10909047777286   10.37952330581721
N         0.06459533388895    2.09370681487811    5.26707226832326
C        -0.33391973199237    0.77721853812225    5.16625860102459
H         0.34885399764103   -0.03046876112295    5.33557650794457
C         1.38040098969609    2.44711271619668    5.65644391006407
C         2.32229032293059    2.75102798223069    4.67099888210831
C         3.62082881862096    3.03957413130591    5.06713266610865
H         4.36414666942560    3.29497108081322    4.32909475979624
C         3.97331049460023    2.99713715374050    6.40262231816000
H         4.98963127589891    3.21408514856012    6.69762224921080
C         3.03234959971739    2.68394874510441    7.36716725095553
H         3.32812802537917    2.66323415991832    8.40346940199360
C         1.72077671748145    2.40404972888721    7.01374067491107
C         0.65804687713964    2.10635525162956    8.04674906083855
H        -0.08133553076597    1.43403512863274    7.59789884334724
C        -0.05211083204800    3.41078574184636    8.42332787494029
H         0.64094945895083    4.08632648008885    8.91789294927250
H        -0.87932365143728    3.20709107346435    9.09933008765902
H        -0.44132673356466    3.91169872575702    7.53065703848228
C         1.20245152599757    1.41582217192580    9.29638580127046
H         1.80986173649509    0.55403469552277    9.02817324003927
H         0.37524325040639    1.07377858191475    9.91480480857025
H         1.80397175475540    2.09646290190704    9.89336125981172
C         1.90764955079537    2.79692253584488    3.22072164955330
H         0.99674637761259    2.20125427620060    3.09878831280399
C         1.59024014114690    4.24685242810105    2.85294872031477
H         0.80429882235162    4.65435302298016    3.51386986716795
H         1.24544564034752    4.31598226256681    1.82489482439930
H         2.47162923300578    4.86956250072449    2.96918944399448
C         2.96545183207235    2.21509115198424    2.28314399988601
H         3.85169434090931    2.84249771727766    2.24755508836149
H         2.56413747994980    2.14428932095920    1.27435567646944
H         3.25967041408236    1.21892747882756    2.60737308693718

