118
CSD_code = EGAMIK | q = 0 | S = 0 | Stoichiometry = C44H70ClCoN2 | MND = 3
Co       10.07871872548436    4.48286814977201   11.42856168002684
Cl        9.58711750998482    3.45388638872071    9.68300360762074
N         9.66223681843392    7.13372244811334   12.80703698444183
C        10.05940795699674    2.98623846411558   12.56700220591559
N        11.02498508819788    2.08434885002106   12.74092757192912
C         7.24413113093652    6.81015907668974   12.94038756421955
C        12.41049613416798    2.24307326901131   12.40080121112828
C        12.94744577077534    1.71345458539256   11.21435695293441
C        13.26508398626489    2.87025210783307   13.32521785123150
C        10.04542245188281    8.56416068805825   12.64486731458916
C        10.63242285228186    0.85447408361158   13.47990872132881
C         7.90460309848384    3.43501827294978   13.86379867038079
H         8.54196462338205    4.27538915037051   14.12900862029754
H         7.16464206537837    3.82086404642034   13.16624292111228
C         8.75883989895081    2.38076702054186   13.12798530461931
C         7.37733949382061    6.57489150575795   15.70151139536532
H         7.42121538678696    6.47187484140212   16.77445684978140
C        10.36054068943610    6.24080437821546   12.11209347687324
C        12.77580641264557    3.52906723433948   14.59358587349085
H        11.72430952658116    3.27980184032606   14.73879145583763
C         6.64331098553990    1.10094372427401   12.32408680438397
H         6.18240629405343    0.70556206106740   11.42094879241398
H         5.94219366269994    1.79330792647315   12.78110419927216
H         6.80536620674089    0.26787493969105   13.00483578577404
C         9.27803878693598    1.27125676612725   14.05357754343239
H         9.42886410453959    1.67460801038200   15.05460052977416
H         8.59294274564138    0.43186540639884   14.12668127575385
C         7.94477081871658    1.79888868577647   11.94842405082260
H         7.70452041189653    2.61408904666938   11.26894517954062
H         8.56466414013384    1.10265601992880   11.38627382581443
C        10.36266070771791    9.22230454563662   13.98759120145040
H         9.47267527068190    9.26100120131864   14.60965911340782
H        10.69886582456815   10.24153666357354   13.80859768611512
H        11.15268629762292    8.69704643826690   14.51516796186007
C         8.95248718608480    9.41333892708957   11.98876331201305
H         8.77047748161122    9.12941332184163   10.95733427606963
H         9.26751614024491   10.45488861621915   11.99393240634286
H         8.02417595497824    9.33700828788670   12.54949882457563
C         8.49204741182004    6.85623517223465   13.58692272347774
C        10.53055561352816   -0.37923860982701   12.57846246729209
H         9.98478584469449   -0.18550887212176   11.66273407597102
H        10.01793890492092   -1.17290418675455   13.11790689786263
H        11.52393600990573   -0.73266798567187   12.32341481005885
C         7.08740695681270    6.85965245430767   11.43770733563941
H         8.02699172855962    7.18221870127501   10.99305914365315
C         8.55982913812946    6.69595032584916   14.98086484328407
C        12.13755475439397    1.10719700795334   10.09112798977528
H        11.07964680272882    1.14763254723331   10.35109919003177
C         9.85263413840059    6.57266261071342   15.75686400796050
H        10.68706569679833    6.74140490196523   15.07602122676852
C        12.31824130098062    1.91548933771689    8.80238334512907
H        11.97403318463721    2.93317431465761    8.94064538494365
H        11.72459982339994    1.46489194818045    8.01031941932696
H        13.35860043996597    1.93762798881621    8.48695449398101
C         9.93775116328477    7.56385827626241   16.92418969836434
H         9.66897330897460    8.57287798669856   16.62619688291490
H        10.95250860511484    7.58316889324090   17.31686410624704
H         9.27496140110847    7.26486879694225   17.73228548766955
C         6.81705458304009    5.45310452079342   10.90547341307055
H         7.69365898666646    4.82974153593514   11.10106512847106
H         6.65072477055150    5.48289040585825    9.83083055286720
H         5.94581296528841    5.00844038466956   11.38182987515706
C        11.29811419359740    8.46723064557733   11.77500494274683
H        12.18821653913548    8.62658142645808   12.38606977209682
H        11.29366436330638    9.22151873817975   10.99138372918285
C        14.32399481667228    1.76859479548863   11.01887978915409
H        14.74314893577476    1.33979264261392   10.12250910031949
C         7.17208080856039    2.96363512557990   15.11818214493078
H         6.61542130324719    2.04849077599466   14.94185200113560
H         6.47127026097126    3.73733299890301   15.42502644768078
H         7.85386802790295    2.79222986231133   15.94747429281870
C        11.61476060172923    0.48863532072261   14.59496054601048
H        12.62386358353604    0.37647261926591   14.20488236672288
H        11.30827233407668   -0.46152204093350   15.02757923788834
H        11.62106050688320    1.22858683027382   15.38760534746803
C        12.77188735906939    6.53958762615914   11.16987944795844
H        13.36907586917440    7.28280224915875   10.63451337842913
H        13.14522652094091    6.50982296501246   12.19366299762012
C         6.14858364190851    6.57360364764873   15.07687447038685
H         5.24119642460487    6.48536553296138   15.65635001688484
C         6.09238045759908    6.66101820884712   13.70218795408941
H         5.13400039966064    6.61783188944742   13.20966548487386
C         9.99032259030345    5.15404828629632   16.31842080134095
H         9.12322944833248    4.88971962569445   16.91821643121762
H        10.87413274702374    5.08900488116026   16.94952170108742
H        10.08635469283044    4.43686960621195   15.51049016812724
C        12.87122968691977    5.04748961570979   14.44638730825391
H        13.86477780786610    5.33677824617800   14.11112347677529
H        12.67956722134078    5.52980623226838   15.40125699354573
H        12.13305531466585    5.37889239040167   13.71962074360138
C         5.98183737795487    7.81717037902356   10.98307670289486
H         4.99649654584610    7.40273764574839   11.18039059850118
H         6.06080945138206    7.98175740483377    9.91028321260293
H         6.05403172801107    8.78040473583979   11.48349072778493
C        11.31680096608669    7.03818853985086   11.20302699798204
C        12.55366509652570   -0.34271678736478    9.80822639141883
H        13.48316099509000   -0.36878352365862    9.24391455879666
H        11.78898427360906   -0.83905667433052    9.21531917118537
H        12.70762377517826   -0.91405403779209   10.71996510710643
C        14.62858977876335    2.92450058774736   13.07085918128269
H        15.28177765967579    3.40889314555234   13.77977648109952
C        15.16724455365554    2.35556454089587   11.93625648269349
H        16.23326868695167    2.38112150415107   11.76324489911787
C        10.69338738884613    6.99887571693770    9.78626825497896
H        10.55013170661741    5.95415291105850    9.49351425300250
H         9.70330597747849    7.45910660842921    9.82660591049942
C        13.57367034358369    3.08310617421072   15.82539010255582
H        13.74780002834495    2.01026711823846   15.82516885564645
H        13.03115491738934    3.34471667994926   16.73196961740977
H        14.53946301721676    3.58067223471687   15.86297960716326
C        12.96405935281294    5.17211493841703   10.53312081114220
H        12.89373905385745    5.22031105953681    9.44996607706604
H        12.19552219412996    4.48224603060295   10.90642808509994
H        13.93738062538660    4.76333719107020   10.79315478765364
C        11.49274875038032    7.70490859183437    8.69619065671977
H        10.92416298817221    7.68373774565701    7.76826116516771
H        12.44572710421999    7.21722593341576    8.51407548683391
H        11.68473303023321    8.74669741462454    8.94730322238486

