116
CSD_code = EGAMEH | q = 0 | S = 0 | Stoichiometry = C51H61FeN3 | MND = 3
Fe        9.71442928388405    6.01652700718290   -5.66606050905663
N         8.31684260592273    5.84378377632256   -4.55176872677119
H         8.10588409383837    4.86712410223785   -4.32715333637835
N        12.60189072355752    5.99788028151304   -6.56330783462236
N        12.05023250264326    4.57182446181175   -5.03896240019666
C        11.56149501778235    5.62668232820914   -5.76676015270904
C        10.13181637793949    6.20555330672623   -7.68212934262932
C        13.67277184602686    5.15133646650393   -6.39363855594634
H        14.56107791382044    5.20390594465091   -6.98668431188654
C        13.33030393426133    4.26329769633045   -5.43640605078359
H        13.87355631265028    3.43626625988611   -5.02714715511856
C        12.47294521584505    7.03633078998189   -7.50161539192400
C        11.20344890248966    7.15796140624435   -8.09335079381322
C        11.03490737030729    8.11449414409251   -9.08390241067894
H        10.08211954568442    8.21284494021038   -9.57833160254873
C        12.08825511391436    8.92207279152768   -9.47293495550510
H        11.95635279810068    9.63418062940256  -10.27495111350221
C        13.30295339257169    8.83915683711495   -8.82395934364130
H        14.10313427207695    9.50410710153600   -9.11193549377686
C        13.50983702366869    7.91913572046776   -7.79946927024648
C        14.81466365674340    7.95551209539197   -7.03311615276051
H        14.75523222011248    7.26535483400895   -6.18680194643691
C        15.05631833051529    9.35046601239918   -6.44788188903858
H        15.19609850910780   10.09086427421966   -7.23082090767716
H        15.94864337201627    9.34260937340964   -5.82485795119607
H        14.21122198676837    9.65603212343702   -5.83467750550107
C        15.99023209018005    7.54325970158533   -7.92298958749374
H        15.82020116966076    6.56373481444765   -8.36617491847236
H        16.91091066056369    7.50657803210493   -7.34379448452760
H        16.12287751230989    8.25605999632178   -8.73306160997545
C         8.72537456968668    6.72187969396386   -7.97542455072372
H         7.99600951368459    6.15637354890504   -7.38146288643492
H         8.44761273671719    6.59321206304528   -9.02326318151498
H         8.63991797714420    7.77289886252216   -7.71359668495281
C        10.35748691947898    4.89538221895149   -8.45375369489016
H        11.32410089349771    4.44898874749744   -8.22859414763546
H        10.33471115800848    5.08770830853296   -9.53053291167137
H         9.57692067200824    4.17412373495791   -8.23072519071718
C        11.36180144306501    3.90917395300169   -3.98869907691635
C        11.67337467687073    4.23303621631298   -2.66150374578252
C        11.03377172833219    3.53819889216256   -1.64487409262223
H        11.27280624554713    3.75676400254652   -0.61634756680205
C        10.09468082047591    2.56658010014834   -1.92981650963018
H         9.60854528035217    2.03561055970724   -1.12672734438150
C         9.78890008050157    2.26347078673146   -3.24043019873886
H         9.05365872124820    1.50234164555521   -3.44964171305558
C        10.42796524073525    2.91245417245921   -4.28909990358892
C        10.15598903934947    2.48256700312973   -5.71046206231609
H        10.80763583104417    3.04828669218939   -6.38038671528036
C         8.70782808933717    2.77919157468056   -6.10301439119246
H         8.01080708865711    2.37788653378280   -5.37078182837876
H         8.48273462191344    2.33490318521486   -7.07037626658643
H         8.56495215175118    3.85979326888117   -6.17247023957336
C        10.47637304119787    0.99512094024670   -5.88591629137887
H         9.78971791275876    0.37593843452400   -5.31474989083850
H        11.48968324543866    0.78032000649738   -5.55274823219173
H        10.39370630814935    0.71847204263555   -6.93468306060671
C        12.71619671561989    5.27472570887460   -2.32548466367639
H        12.86632944358749    5.91278958284723   -3.20131310536264
C        12.28773050016009    6.16607431987832   -1.15732749293266
H        11.26233457458792    6.50149190661710   -1.28183491114025
H        12.93252424917313    7.04030597205131   -1.10492892975988
H        12.36790636192273    5.63769562549786   -0.21068372252800
C        14.04549149194801    4.59071283249870   -1.98742228942008
H        13.91988266296050    3.91934195635609   -1.14059654661852
H        14.79421055555730    5.33647189273501   -1.72962635064362
H        14.41482766508959    4.01160068854573   -2.82957453506307
C         7.53722577997569    6.65647486840597   -3.78988593093159
C         7.62375223767319    8.05787046551851   -3.91748110202872
C         6.83906542476400    8.87427360688024   -3.11906273042947
H         6.93769858787201    9.94670883136711   -3.21715432085550
C         5.94878202590435    8.34430681713321   -2.20151030586704
H         5.34591968561516    8.99478754400638   -1.58539112772265
C         5.82772204053612    6.96912406807754   -2.09528396061939
H         5.11041249854263    6.53771984223394   -1.40951439385736
C         6.60153545679256    6.12629009269356   -2.87197553389422
C         6.43233757236199    4.65721022029766   -2.75802219375653
C         6.93978112638938    3.97591296445883   -1.64984556089265
C         6.75079986130943    2.60647410715738   -1.55043007499357
H         7.12521781212443    2.08131762343852   -0.68225400280833
C         6.09224993165361    1.89202998721748   -2.54051730781364
C         5.60043781281098    2.58118805795352   -3.63933110449185
H         5.07983822975500    2.03808675397070   -4.41695510115415
C         5.75031794643524    3.95480276590652   -3.75584719281136
C         5.18691337052048    4.68454949465254   -4.93926296938306
H         4.57371159776688    5.52198346523025   -4.60874469748936
H         4.58027117783909    4.02072995249685   -5.55083430479342
H         5.98777026022859    5.09126017068090   -5.55772564008532
C         5.89691246057019    0.40981908322174   -2.41499075721604
H         4.96238704906102    0.19857457507798   -1.89430459401493
H         6.70642980146161   -0.04286888471384   -1.84617347627193
H         5.84711357911545   -0.06070508440913   -3.39475077433495
C         7.69675671366196    4.72296194687391   -0.59267055534145
H         8.52315285166792    5.27234396411785   -1.04270158167378
H         8.09341389036810    4.04063226807080    0.15503952830972
H         7.05238381374422    5.44684127436175   -0.09652668723087
C         8.52567049731211    8.68961151032029   -4.90741373881905
C         9.91703619048471    8.66525125112419   -4.73772040771114
C        10.71983847241021    9.43080295516487   -5.57573793706949
H        11.78918219664442    9.43454220597973   -5.41980761798811
C        10.17845418297040   10.23420954985679   -6.56555979802655
C         8.80425527720199   10.20734920315877   -6.75642680850854
H         8.36662905267039   10.81312682545436   -7.53863120054403
C         7.97431576778948    9.44122197654435   -5.95220077658747
C         6.49343884759970    9.44489020829455   -6.20250659117249
H         6.00888069434174   10.23448903842497   -5.62849254022487
H         6.04993442403155    8.49764055173590   -5.90553642535670
H         6.28648456613047    9.62171637086669   -7.25621908983921
C        11.03782601663840   11.17032915863591   -7.35918812090911
H        12.06954513555415   10.83095246852134   -7.37534468629627
H        11.00928652970566   12.16388264047452   -6.90853751554443
H        10.67902492038722   11.25615707369384   -8.38181291453521
C        10.52107180212866    7.97817983891755   -3.54659436603446
H        11.58473411642840    8.18955958918454   -3.48542674116228
H        10.37784394468270    6.89396458781678   -3.61011783670121
H        10.03528278579817    8.32699722947073   -2.63629580206919

