169
CSD_code = EGANAE | q = 0 | S = 0 | Stoichiometry = C72H90F3FeN3 | MND = 3
Fe        7.90710071378657    6.12711054777566   10.72778675436885
F        -0.12522907326520    8.05699977002010   15.10079548361001
F        -0.55977505395039    5.98638746567021   14.71674362215179
F        -1.04803758461668    7.47548619048835   13.24639232136789
N         9.37772995267362    7.05917798974458   10.99742981043239
H         9.52710005305023    7.68877176135047   10.19675784871497
N         6.03931396528577    5.80495643445301    8.59590326681888
N         6.04475713555037    3.88193522656695    9.58104673720769
C         6.64901729729922    5.10997929258253    9.61843499985486
C         6.12645375567328    6.11247667182247   11.32056197452926
C         5.05963471095359    5.04887202414568    7.99731619933228
H         4.46832954461477    5.42012893721379    7.18608450145038
C         5.05951366393417    3.85047682888533    8.61261339822569
H         4.46182570241410    2.97801691106931    8.44623329066851
C         6.45228575054880    7.09869876041001    8.17784041417944
C         7.63767527759526    7.20421352834982    7.43605938630777
C         8.07969699405263    8.46673065258739    7.06313053507254
H         9.00635066501721    8.57125840649899    6.52023550961195
C         7.33487017035765    9.59033481109198    7.36343468996985
H         7.68147558561101   10.56595548790775    7.05768852971043
C         6.12805954684545    9.46420573511657    8.02344570786398
H         5.53527929558041   10.34512348151744    8.21121039388951
C         5.66565035164140    8.22490463881560    8.44738497645922
C         4.31072102261761    8.10975207607490    9.10191713678862
H         4.20989827564203    7.10540314897666    9.51784732851830
C         4.13887478605884    9.10354839197859   10.24995260092114
H         4.94377720819322    8.98375200201914   10.96887655625229
H         3.19443705005021    8.91769781102208   10.75622029709485
H         4.13415211078342   10.12967901318503    9.89232373222584
C         3.21556943883210    8.31909201973764    8.05105680581137
H         3.27437830227076    9.32060131232781    7.63087984260040
H         2.23608814301728    8.19343003034565    8.50638256931715
H         3.31214931995306    7.60443474019713    7.23630079927453
C         8.37664749151063    5.97783690927923    6.95362840988056
H         7.81160974395591    5.08780965802681    7.24088576464468
C         8.46597988808169    5.98026672235528    5.42494515721070
H         7.47340328965942    6.05658686830666    4.98591026191535
H         8.92551145324347    5.05713183987958    5.07823400497410
H         9.06225233935171    6.81356541661364    5.06360089136750
C         9.76300203067424    5.88586586705316    7.58560700384402
H        10.35658396669812    6.76908918112201    7.36753876646316
H        10.29162529817095    5.01482009487103    7.20643035985107
H         9.67022575244357    5.79509423672972    8.67076791196013
C         6.39851704904141    2.70576976268604   10.29732410084732
C         7.56075546126279    2.00892669050253    9.93605718371096
C         7.82968925612264    0.80378718524089   10.56737280257197
H         8.70871569817048    0.24052488619435   10.30076891804224
C         6.97819114394647    0.29875392757564   11.53242756508024
H         7.20279332190494   -0.64394207800343   12.00873729405351
C         5.84053082363017    0.99597593622304   11.87987800387990
H         5.17759648852233    0.59265616581291   12.62933141185180
C         5.53031277169217    2.20534800086758   11.26939452467847
C         4.27780963859956    2.94309677703834   11.67041063865054
H         4.24167850063965    3.89123851174096   11.13077991496429
C         4.31015794457258    3.27190750303136   13.16270820000285
H         4.36325191457818    2.37037848696135   13.76739677553467
H         3.40781117183733    3.81263795547663   13.43775962216082
H         5.17104140964979    3.89878584290425   13.38360854748623
C         3.02718825847261    2.13389730394474   11.31957139890694
H         3.00190580035481    1.89761068682192   10.25747669376448
H         2.13604479748216    2.70621132485002   11.56686270224841
H         2.99859614238564    1.20020216130232   11.87571646971864
C         8.46285882433119    2.53706692073514    8.84369808892602
H         8.47747824569336    3.63000416471227    8.92752137206833
C         9.90607191491742    2.04864602695773    8.94807471458149
H        10.30729654336434    2.23050684657663    9.94151811376198
H        10.52249156330647    2.58110387704535    8.22771117157820
H         9.98312993888174    0.98745697791479    8.72413145049422
C         7.89119152919093    2.14481573999965    7.47576960939377
H         7.83708430670272    1.06112713515408    7.39167215996883
H         8.53000542607495    2.51985121900324    6.67910041102055
H         6.89103089716482    2.54699868066192    7.33324709283844
C         5.00986361231928    6.26911728596133   11.79682273099933
C         3.74336752195763    6.49717560301127   12.36464067522565
C         2.57079959357299    6.09480797924494   11.70561700539133
H         2.63631961605494    5.60930014007043   10.74217188961717
C         1.33736107047530    6.30914114938771   12.27644923406984
H         0.43636214405337    5.99451440546184   11.77027476524489
C         1.24443087927148    6.93956766278611   13.51514809636448
C         2.39636542392053    7.35812545786592   14.17614476424283
H         2.31439111743144    7.84848611662523   15.13454736521512
C         3.62906041532232    7.14315513690858   13.60353546875085
H         4.53111172125053    7.46034775040654   14.10176154144734
C        -0.10015672097003    7.12179928326834   14.13733709251211
C        10.43396470992154    7.17095063315574   11.87269962767768
C        10.23829711090950    6.90094787070759   13.24104524427020
C        11.29861276216313    7.01645043334977   14.12896474961767
H        11.12030860361456    6.80765663034563   15.17469179878112
C        12.55115963072346    7.42363120659345   13.70636562982651
H        13.36263772453055    7.51960299225719   14.41170451966078
C        12.74253671299395    7.73335878875156   12.37252170409078
H        13.70565472465259    8.08189895832690   12.02631668514608
C        11.71112605288476    7.60787732272590   11.45483942266877
C        11.97354607472301    7.93845454952176   10.03191499952342
C        12.72981167333477    7.06563771183040    9.24249342842414
C        12.96375998261789    7.38682827957578    7.91379110522505
H        13.55415426949226    6.71582108196942    7.30903559494105
C        12.46695763107730    8.55055394540500    7.34651845877574
C        11.74938797912415    9.42007949618067    8.15328018280103
H        11.39351913852770   10.34884579238712    7.73082305480466
C        11.50258288046595    9.13917269796007    9.48919839705878
C        10.83506537785743   10.17363402040429   10.36907887132103
H        10.60883966828741    9.71793860538337   11.33771017004332
C         9.52942373050215   10.70891409037318    9.78292039618307
H         9.70186297939109   11.22567797831462    8.84229729243253
H         9.07935001955762   11.41684069081653   10.47560153501608
H         8.81936103014914    9.90240278393263    9.60903553472115
C        11.82235002632162   11.31795987830022   10.61860125413963
H        12.73341299955793   10.93601448247336   11.07416167049132
H        11.38455723061560   12.05524385960443   11.28824874714124
H        12.08525275799722   11.81027701044830    9.68483324080782
C        12.75200526576584    8.90803353326682    5.90714911387859
H        12.14009436976783    9.77952391697313    5.64490420481994
C        14.22455097635278    9.29840732185926    5.75501452171552
H        14.46801664948900   10.12318610651101    6.42133615282830
H        14.43364057169108    9.60452799698976    4.73207513681888
H        14.86879903151233    8.45807535151487    6.00307569944388
C        12.39684934737472    7.77258858854588    4.94623200238028
H        13.03380373603087    6.90738576854509    5.11100586115863
H        12.52892762365605    8.09858989508956    3.91658736477124
H        11.36216457802275    7.46465484011026    5.07989531895045
C        13.32830113777982    5.80154833165019    9.81907286250761
H        13.06700732374907    5.74385784158349   10.87939785804676
C        14.85484893554848    5.83662332179968    9.71277793561331
H        15.17723738397934    5.82058561166366    8.67442216508546
H        15.28552289767993    4.97401982518589   10.21702038684750
H        15.24690262003876    6.73832540987172   10.17796405568676
C        12.76503747363872    4.55467186958555    9.13716577572763
H        11.69314287304297    4.49591728752834    9.30417435454565
H        13.22870942838021    3.66113165151577    9.55040475919624
H        12.95236109170889    4.57371580367673    8.06597956511967
C         8.90843519111589    6.61851843975867   13.84558867656062
C         8.08212569663131    7.69333917256901   14.19158706629168
C         7.00606874662348    7.47263765658168   15.03754536471786
H         6.40042622482414    8.31249902510372   15.34767853391737
C         6.71696009040834    6.21621049034030   15.54469861618612
C         7.48770190186779    5.14587396093359   15.11460137136497
H         7.25317653272984    4.15493685013877   15.46836888844726
C         8.58299677598890    5.33052631973190   14.28595246187589
C         9.42364285145688    4.16315516798062   13.82239582349683
H        10.44274932027490    4.52508073271798   13.65073207168759
C         8.85559425134756    3.67103411501802   12.48960144516819
H         7.82355616124282    3.35402299485113   12.61792893031098
H         9.43117835130379    2.82942858358992   12.11224338495661
H         8.88391318784695    4.48188832271394   11.74320896785098
C         9.49501068251451    3.01010606171647   14.82261009131602
H         9.75553831199046    3.37690034516208   15.81271809083014
H        10.25570045217378    2.29771065359380   14.50962051625811
H         8.54754904617584    2.47993021008064   14.88043333023451
C         5.65545885359017    6.05502959296352   16.60755759536025
H         5.11701809918913    7.00523200830480   16.69952353097589
C         4.63466204060928    4.96662975929592   16.28313879748561
H         4.14359903610664    5.17931324216440   15.33796239697441
H         3.87727593164641    4.92373845000435   17.06320544055659
H         5.10902298282508    3.99128511166827   16.21623111945852
C         6.33528334219304    5.76754415296480   17.95001809665538
H         6.87354171372005    4.82359483192973   17.90851763941148
H         5.59540093724120    5.70963596489506   18.74551859293834
H         7.04502974641931    6.55564528262564   18.19219518379032
C         8.34203218912317    9.08264183194344   13.65803447838723
H         9.31790186468037    9.08665485851613   13.16563663034145
C         7.27474236243780    9.41269378067563   12.61196973728465
H         7.27133246895739    8.64196216727943   11.83607690172578
H         7.47074099744333   10.37879244561968   12.15243164297667
H         6.28879140074804    9.43978037554464   13.07042536475109
C         8.38212731938903   10.14115250734890   14.76090898427153
H         7.40898578490876   10.26887198318950   15.22768051755104
H         8.68356963492175   11.10021451378982   14.34402109326476
H         9.09967421136575    9.85880448681199   15.52827007896228

