113
CSD_code = EGAPOS | q = 1 | S = 0 | Stoichiometry = C52H54N6Rh(1+) | MND = 6
Rh        8.74403554886101    3.75970514642669   10.47331870911268
C         8.79401549179220    1.74418293942122   10.12868289323265
C         8.97522667142535   -0.38090035630809    9.44771189350352
H         9.34189569322383   -1.19189202964219    8.85352867967278
C         8.08121656400139   -0.35214456139943   10.46170804726756
H         7.52697516815468   -1.14129963540578   10.92612033777345
C         7.10801562950995    1.42186793240452   11.90635995314384
H         7.42664875478636    2.44107322412571   12.18267635174379
H         7.22505561040136    0.79016078645164   12.79237945025279
C         5.64656837878214    1.46358489955939   11.54173801479308
C         5.10867214206654    0.88984847496361   10.42033682894017
H         5.73807040031626    0.36338211510327    9.71661714795051
C         3.73130811215908    0.96523597682675   10.15492537538614
H         3.34564807016312    0.50216640759783    9.25945547680393
C         2.88934955563694    1.60843611783768   11.01649708726052
H         1.82893984181009    1.66274121960096   10.82059791054693
C         3.39981340846394    2.21316448318614   12.18309556804383
C         4.79322014479104    2.14667631826221   12.44732682020519
C         4.56844194337927    3.34939247985235   14.37373164084331
H         5.06460735959847    3.80104063508123   15.22304953789534
C         3.17556211258544    3.46080294166581   14.22013826078787
H         2.59176247543666    3.98788207283746   14.95790124744352
C         2.59304696649332    2.89475081246976   13.11879203425441
H         1.52764128652401    2.95937034103665   12.95006539185296
C        10.32859157821457    1.27003671596154    8.23711983138269
C         9.87717464186861    1.48941116483936    6.93710321682813
C         8.44662686254468    1.26526341609814    6.54376221096879
H         8.12749898887989    2.00447109660728    5.81263481015528
H         7.77198908171006    1.29801388049108    7.39581742827175
H         8.35310429766155    0.28289041440310    6.07873300744614
C        10.80362842953325    1.85881846769604    5.97013136246162
H        10.45664864692076    2.03779200996312    4.96308739253850
C        12.15219940829197    1.97777220617503    6.26168905287878
C        13.14301952492315    2.38704188782197    5.21937018075608
H        13.56481965381401    3.35928636182170    5.47194651924127
H        12.67907851883192    2.45296516351158    4.23915128956826
H        13.96247857971467    1.67241696793253    5.17000328408029
C        12.58092262597517    1.68530299676399    7.55092885254491
H        13.63665177296423    1.72738909362692    7.77633601343240
C        11.68987150504520    1.32380651930510    8.54602858895610
C        12.17300038089362    0.94350185816413    9.91306090308267
H        11.60193918560882    1.45232624044102   10.68573053973691
H        13.22514167606995    1.18600664941351   10.03265638775238
H        12.05513965816390   -0.12993878125409   10.06439203789346
C        10.40803308540060    3.69023035739382   11.66188091946466
C        12.58915801121606    4.00926258257959   12.05580899784185
H        13.60838158828065    4.23841312627721   11.82277000370353
C        12.01221021961163    3.64497564726363   13.22312248130171
H        12.42489347262481    3.50602246045611   14.20067367434912
C         9.74587094598385    3.08215926992659   13.97570565184490
C         9.18562144436405    4.05870535565918   14.79680340663880
C         9.60154384436806    5.49825658618947   14.71987013603360
H         8.74701730652523    6.15490998002562   14.86682812242654
H        10.07604296787464    5.74308259030931   13.77276462700734
H        10.31564917659036    5.70718259429235   15.51760487123606
C         8.26598797549764    3.66312738042194   15.75994049826172
H         7.82337399595069    4.41794335399003   16.39307047992589
C         7.92673699872972    2.33262240180924   15.94020076444614
C         6.92327798131984    1.91602428554112   16.96729932656271
H         6.01706831387044    1.56421028910645   16.47445739958722
H         6.66285969133888    2.74349383619864   17.62173724064573
H         7.31083464623037    1.09903486910010   17.57300583770824
C         8.55525536172133    1.37512240259060   15.15308835358635
H         8.33541702454076    0.33045283681149   15.31913557472761
C         9.46889198716466    1.72748423024624   14.17527194336779
C        10.18929115955143    0.68080209275933   13.38012154550141
H        10.16044336951058    0.90793836854983   12.31728705007021
H         9.75094571505168   -0.29946612878088   13.54452391930002
H        11.23593430681144    0.63744210608945   13.68297318343165
C        11.78483791413522    4.39946737072834    9.73590109703182
H        10.88991167365536    4.08210270573669    9.17454251807577
H        12.63960485081910    3.85138676277924    9.32739416882239
C        12.00288245900804    5.87019886453359    9.49098528886349
C        12.25563188843414    6.79241593275754   10.47166360287426
H        12.30600610806492    6.49196511020774   11.50882759208076
C        12.45851304200357    8.14709148013841   10.16034316831456
H        12.65333288075762    8.84377969902202   10.96138888214221
C        12.41667731174214    8.57885270734650    8.86544831403469
H        12.57961213166559    9.61769861453681    8.62042177465382
C        12.15925815633112    7.66418853774972    7.82415442915077
C        11.94345070751230    6.29651207931552    8.13833813668174
C        11.61833806467791    5.75909358168232    5.94431916492087
H        11.38633250680528    4.98316758441610    5.22632441238154
C        11.83435409148864    7.08158595053082    5.51951636874789
H        11.78306153113138    7.32660219248267    4.47059991620807
C        12.10022038829402    8.03537698759260    6.46412643880039
H        12.26508482011908    9.06766943226815    6.19041542919877
C         7.89217541830944    4.24191227229953    8.55184977656690
H         8.27453070481031    3.50403599723188    7.84981245889143
C         8.26541598484762    5.65220509838423    8.16719849635943
H         7.55012515881720    6.01354977898673    7.42080231272694
H         9.24429833108512    5.61876024507952    7.68406204090223
C         8.32383310483002    6.63234748411517    9.35268536141831
H         9.04365179468946    7.41915551850362    9.11744777201566
H         7.35526178552198    7.11186981402872    9.50017716728553
C         8.73942376237340    5.95368284600730   10.63626663703106
H         9.70559866478613    6.27799882514961   11.01713562266440
C         7.84510787163779    5.40771832614534   11.53421124595156
H         8.15114739375325    5.30983104831654   12.57355542465585
C         6.34629056699649    5.36519838269511   11.36651597413740
H         5.94267377443300    6.36419243410945   11.56256598873190
H         5.94287486275448    4.69982230737679   12.13288034521681
C         5.88216088016991    4.87653433980232    9.98247120008828
H         4.90402250879586    4.40334789880886   10.09153194851951
H         5.76092614623029    5.71921551669521    9.30052596858776
C         6.84335621259173    3.88321882477952    9.37385517508222
H         6.43567833375784    2.88018069588556    9.26654964111986
N         9.39923955867922    0.91025054251592    9.25437231132983
N         7.97716579165154    0.95342034318357   10.86057230067189
N         5.34668415263068    2.72436276840611   13.53403883742475
N        10.67712411228568    3.45673764444764   12.96547059090617
N        11.59467152870460    4.03882840794927   11.11526005575088
N        11.66934813008969    5.37623109872048    7.19019106530618

