49
CSD_code = EGAPUX | q = 0 | S = 0 | Stoichiometry = C20H24N2O2Zn | MND = 4
Zn        4.54300008650866    9.78974892733446    3.33328997983600
O         3.17497216957023    9.01563171716029    2.39284659809744
N         5.04006400655103    8.20621031457374    4.39401400115212
C         2.84723186123047    7.77022643689631    2.39940452602862
C         3.44195276885089    6.78487237014360    3.24684359741553
C         2.98463794107217    5.45211751975019    3.17316935175098
H         3.44672584012076    4.71797186461406    3.81993674639975
C         1.98824571621739    5.07352200539458    2.31617785284984
H         1.65609337727389    4.04747524054640    2.27706287536554
C         1.40203699656210    6.03400932777095    1.48394485581681
H         0.61545919793265    5.74016159983307    0.80359044166814
C         1.81675939002460    7.33631395257131    1.52541341325665
H         1.37279700161848    8.08448147556441    0.88608073029031
C         4.49085334385422    7.06395074018566    4.16224284596528
H         4.85151414362079    6.19820902208284    4.73231968665978
C         6.13323569936646    8.26351033153263    5.33567878166849
H         6.15640670059213    7.35858937039939    5.95935628670094
H         5.98091370190263    9.13335308394092    5.98145396106337
C         7.46814510895926    8.41722359219423    4.60203168413164
H         7.39856782718497    9.27284788566323    3.92861871800687
H         7.64072565150722    7.52673419309136    3.99369472649389
C         8.62054038049697    8.61247597370130    5.57765440405123
H         8.70072492667681    7.76445525033400    6.25524838207415
H         8.47166196800999    9.51247320874409    6.17010498595310
H         9.55850491141665    8.70968904987203    5.03742925038667
O         5.91100590738999   10.56387062201067    2.39281916212198
C         6.23874733978009   11.80927574694598    2.39937913417431
C         5.64403947230739   12.79462597314401    3.24683181613878
C         6.10136611910939   14.12737740418476    3.17316965529143
H         5.63927609506098   14.86152322017297    3.81993520105156
C         7.09776992221207   14.50597013935826    2.31619041636270
H         7.42992741147053   15.53201543624710    2.27708171247165
C         7.68397772409278   13.54548352064388    1.48395618034543
H         8.47055292970766   13.83933222446215    0.80359899629183
C         7.26923962308071   12.24318327041136    1.52540856230782
H         7.71319914838390   11.49501694141761    0.88607253348564
C         4.59515020913854   12.51554453318180    4.16224363276889
N         4.04594185857751   11.37328401949555    4.39401544219864
C         2.95276653952356   11.31598178810366    5.33567666664139
H         2.92960158557684   12.22089320690574    5.95936812869182
H         3.10508095161030   10.44612835532827    5.98143871090557
C         1.61785277288150   11.16228534080192    4.60203387995409
H         1.68742319819847   10.30666924008604    3.92861006123392
H         1.44527321144004   12.05278284851178    3.99370874455247
C         0.46546106882669   10.96702584103608    5.57765956023900
H         0.38525797369355   11.81505809685644    6.25523657314170
H         0.61436139924296   10.06704447342506    6.17012860937824
H        -0.47250235182793   10.86977928927210    5.03743858560682
H         4.23445917339482   13.38129401410257    4.73228935156417

