43
CSD_code = EGAXAN | q = 0 | S = 0 | Stoichiometry = C13H25INiP2S | MND = 4
I        -0.28964428574766    9.89141841284626   16.05720170317516
Ni        1.30437648284381    8.16601072087976   15.36915246915903
P        -0.23885816528422    6.88673879746409   14.54886540349582
S         2.43448014951093    8.32509706303146   12.78265558775786
P         3.01070782486591    9.26101172689001   16.13121144344111
C         2.89743466524050    5.73726615170153   15.76000853977524
H         2.50316823089259    5.62494701611070   16.76364700471552
C         2.50010389655558    6.79812518356646   14.96450412135900
C         3.02740783342021    6.91205452200901   13.67449460663998
C         3.93284794750103    5.98662305984322   13.18696787234317
H         4.34357174083975    6.07603339589932   12.19216764701774
C         3.80315092165544    4.80193806251892   15.27389106410307
H         4.10445555044097    3.97443757598777   15.90061361969473
C         3.16912885020020   10.97344781873993   15.50551549663840
H         4.07341254045447   11.42640301519988   15.91162881427902
H         2.29813341055388   11.55626016906758   15.79892922860575
H         3.22563203113948   10.95257542094971   14.41767894238962
C         0.15032287977736    5.33440185516494   13.65183534644857
H        -0.77673127639554    4.85102133207722   13.34509741354892
H         0.71794426079263    4.66141711580533   14.29243026949653
H         0.74773809036005    5.55720346641306   12.76941402115490
C         2.98787471092576    9.51686620000489   17.94316473747420
H         3.02214392299125    8.55032082214401   18.44518818280061
H         2.06993673800900   10.02921674239554   18.22749267269895
H         3.85031393272874   10.11294094656803   18.24053792158722
C         4.73246896795045    8.67413984437185   15.89583479044443
H         5.42315736693111    9.37377688670816   16.36577410365017
H         4.95594905847220    8.60787370271556   14.83236528398090
H         4.85711683751206    7.68667584173462   16.33724855319891
C         4.31528571135398    4.92781322877261   13.99632195138291
H         5.02006938073232    4.20073948062152   13.61956473163669
C        -1.34966430506313    7.68781896807843   13.33446337358106
H        -0.75576293429290    8.08432050634622   12.51155632947446
H        -1.88267339077863    8.51012533415977   13.80781371649283
H        -2.06017616686777    6.95406041915945   12.95440849067584
C        -1.42316263519673    6.26470011684502   15.79758970294297
H        -1.87774326931379    7.10541503529419   16.31970895063725
H        -0.89372957895239    5.64468436169089   16.52060741093180
H        -2.19619762573319    5.67380513408923   15.30707184465217
C         3.10863517870452    8.12218254818744   11.10716783008033
H         4.19248269242612    8.19272369215074   11.13118192859381
H         2.69958590064199    8.93835834554836   10.51994201838709
H         2.78820592720190    7.17020996024382   10.69328485945728

