170
CSD_code = EGEBUO | q = 0 | S = 0 | Stoichiometry = C73H85NbO3P8 | MND = 5
Nb       13.14240894234283    4.11318982233038    4.88158011481056
P        10.99435281871519    5.39585489142732    5.41092434950720
P        13.66260651037582    7.31029239857121    6.58876848504654
P        13.65691317254328    7.33607092901308    4.37831474479782
P        11.50813738350886    6.99083778071650    4.01475086896420
P        12.57797534113278    5.48418697761864    7.00660854944477
P        12.25876436843923   10.08529425006368    5.31632078440367
P        12.00962757370059    8.73627792545672    7.01312350847738
P        10.65148894974088    8.61315148806737    5.26552892261750
O        12.57029344428455    2.68886004163897    5.74979725476742
O        12.83674691465829    4.50844568861458    3.02926199940505
O        14.82405633686790    4.84037688435236    4.82606092230726
C         9.97056247156475   -0.31558473849544    8.33853398067998
H         9.87787073066207   -0.98380060593793    9.19792683541845
H        10.09032747170920   -0.93089975121496    7.44427464414117
C        15.00128368847725    9.66713222247611    4.75265576714828
C         9.90154297571149    3.22019397794477    8.42809645303872
H        10.76107938429738    3.88754363506015    8.54517263961959
H         9.00994456382786    3.84117771882967    8.32214052792050
C        17.41687406458913    7.18698369310421    6.64690240444151
H        17.27768231967713    7.61177809551395    7.64339611014571
H        16.83473407562929    7.78395266908397    5.94291521371249
C        11.19720513556548    0.58279303142264    8.51881114968656
H        12.10080309326188   -0.02752888143537    8.61229192457228
C        12.96771144182720   10.98079932326426    0.42390890649409
H        12.79372896673491   11.43977579008429   -0.53794448560606
C        18.56184685956876    5.17905268497646    4.83511691179202
H        18.67699905687658    4.75856518116698    3.83068672408431
C        16.11561902598256   -0.44389568131215    7.26802436348725
C        13.70330498569354    0.93257220510592    6.90528003846950
C        17.11692410174366    5.18638198204014    5.24078392053360
C        11.18182473217479    2.77448867736707    2.73725010679771
C         9.76624830918934    2.30182848309349    9.64177474615686
H         9.64384253535600    2.90989179367875   10.54503380357998
C        13.39996584114024    9.78548280210793    2.90357516564400
C         9.82307263130373    2.95252808520836    3.02130908634985
C        13.84468276710464   -0.37127982527595    6.42712685662441
C        16.91269265977848    5.74505537618820    6.61854137308470
H        15.84525188591827    5.72502584332105    6.88133177273489
C        13.27007796354334   11.76368997983529    1.52612413861674
H        13.33624308880179   12.83721478542993    1.43002341355836
C        13.48522244208600   11.16965198517263    2.75270048756992
H        13.72911793291875   11.77787542533869    3.61410838940760
C        14.76111564671746    1.53592610809779    7.59732255872165
C        11.95953662483624    4.79274578706689   -2.56638044961005
H        12.58035897782628    5.52372851025295   -3.09045107434327
H        11.34381029060416    4.28263501313074   -3.31123132340694
C         9.59802583429311    0.58155358614225    3.46671932246957
C        16.11328849473177    4.75812184387107    4.46493425328408
C        15.23933420039448   10.20850471190331    6.00947555118644
H        14.42604840869109   10.31540623672157    6.71757497744161
C        16.07174988488647    9.54124854828035    3.86885968266489
H        15.89951535718701    9.12147435831592    2.88752260902293
C        19.37310274174414    4.35287220425304    5.83849304225732
H        19.03901463208031    3.31240475132174    5.81887429048941
H        20.42927076447338    4.36876957984379    5.55878854311958
C        11.75321623129266    1.50057480261292    2.85178784412175
C         9.14707781445452    4.28192760373783    2.86771243637959
H         9.86322419345574    5.06255165274267    2.61556787679841
H         8.63904662768602    4.55843948700703    3.79170158905443
H         8.39808475991680    4.22811312160815    2.07740001979851
C        13.63163740713595    9.22766772342547    4.28660928739103
C        19.06669403904856    6.62771401846813    4.85963674809163
H        20.11948820549987    6.65577571196475    4.56728097750667
H        18.49811859337340    7.22833537084870    4.14720948767768
C        11.31427068572961    1.52673507191334    7.35850799322276
C         8.54433651105887    1.40018109562917    9.46499659393559
H         8.42885090834876    0.75343055612055   10.33813889346275
H         7.64213455677856    2.00944190541393    9.37804295383920
C        18.89454049503264    7.20874217620251    6.26226395092137
H        19.25504740872222    8.24338606641892    6.27202819591238
C        11.96941147319109    2.74916200493240   -1.13517859539905
H        12.59481026047979    2.01422857760832   -0.62265761090197
H        11.35181074750815    2.21833258232990   -1.86402242706754
C        13.71564462996738    4.50198944760693   -0.81425664044505
H        14.35651729178564    5.23276649603738   -1.31450915635739
H        14.35685596424254    3.78435913460477   -0.29901842387418
C        17.71168248819323    4.89961876338886    7.61505583509823
H        17.56941289213535    5.29200036846420    8.62456532462651
H        17.35395992564632    3.86771236347044    7.59659124132995
C        11.01642651503755    1.43410654876468    9.78367104322570
H        10.92244002169859    0.78086502672116   10.65440364671205
H        11.89564547012501    2.06509444033372    9.92965982135173
C        16.33600810254765    4.06332158991482    3.15697334189536
C        16.40960061104563    2.66599581767801    3.15793444004010
C        16.46283458461130    4.76978608530062    1.96186099638347
C        12.81928585914529    5.21086134024456    0.20627604189018
H        13.43723366084280    5.71089773753729    0.96038904131311
C        12.89089863390894    9.60754855393536    0.56205829971811
H        12.65846096581328    8.99631561267601   -0.29551720961755
C        12.01307921339149    3.89062623288469    2.17508679290264
C        15.05066818995851   -1.03666310720207    6.61017479912679
H        15.15193823826855   -2.04444293802646    6.23149164042829
C        13.10698616004163    9.01043813796475    1.79322159350002
H        13.05335477063241    7.93168120685975    1.88536672507794
C        14.62091949957825    2.91764179537509    8.15663051267907
H        14.84704532610499    3.66291537078330    7.38447483104427
H        15.30894052890006    3.07069064933922    8.98500514809826
H        13.60243308707507    3.09717562897216    8.50341020706943
C        17.42178018564310   -1.15892929116107    7.43382085328931
H        17.30715725804514   -2.22615742086983    7.26197399076367
H        17.82134524719942   -1.00348347354123    8.43371583218922
H        18.15097378830837   -0.77414094286418    6.72005928267085
C        12.44761796952879    1.71513238706669    6.66800621141675
C        15.94821624243702    0.84050406519723    7.76718957601601
H        16.76078757613748    1.30879361265454    8.30537145343158
C        11.95092499845894    4.18135751298340    0.86655782676103
C        12.84644923036422    3.78057235738062   -1.84252497249153
H        13.49100093642717    3.27325502916240   -2.57104338938540
C        11.07239469868827    3.45782794216508   -0.11332626684764
H        10.44657531410288    2.71949316345864    0.39644774828956
C        16.50668302954183   10.63522252821341    6.36681664357766
H        16.66781866757799   11.06244018111615    7.34522872954645
C        16.38474782109526    6.26495699285117    1.94302308811835
H        15.67907522176492    6.61667557522476    2.69617743517364
H        16.07315207732490    6.62383162695401    0.96427991818279
H        17.36019069168663    6.69495672730287    2.17188534089301
C        13.20810338922007    1.25624542846729    2.55632125327878
H        13.71746846013060    2.16847885176323    2.24292389249989
H        13.30991927247997    0.51946796714566    1.75843027832794
H        13.70701589441034    0.85318460250285    3.44099179171834
C         9.05910533125432    1.85637023899455    3.40364609891070
H         8.01043426831546    2.00425036125141    3.62076790793848
C        12.71689691134228   -1.08661613392985    5.74655882251541
H        11.92906132248063   -0.39160658802068    5.46870182697715
H        12.29673616451113   -1.83332459519326    6.42102427044906
H        13.07432134442774   -1.60672693437532    4.85894532461924
C         8.71915504514111    0.55025623851087    8.20728615481120
H         7.84259128381884   -0.09555954713292    8.07773971116834
C        10.94803367688425    0.42190550338224    3.18820726202909
H        11.37721658035163   -0.57006326872552    3.20153351549006
C         8.86489901684236    1.46007149248057    6.98970843494054
H         7.97143296781169    2.07665095440044    6.87091218839588
H         8.98597506266765    0.86095854501574    6.08712067918732
C        10.18604224146797    4.47527145967539   -0.83851618236334
H         9.55050994490839    3.95996554449297   -1.56308756315037
H         9.53886683386960    4.97901222009231   -0.11818003913571
C        17.55745313631394   10.52595208691062    5.47387089513714
H        18.54237761047156   10.87415836216539    5.74714212099129
C        11.06606908698662    5.50109560033319   -1.54879969597991
H        10.43094861630299    6.23025533664706   -2.06603256056249
C        10.08504720167587    2.36491202931272    7.16988249812410
H        10.19651329777761    3.01233110783654    6.28827131154704
C        16.28487573564720    1.90760607094722    4.44809905735840
H        17.07406053204522    2.20424839695023    5.13893733565763
H        16.35495498186616    0.83467530391503    4.28130747614592
H        15.32694587598724    2.11912613517566    4.93804288899520
C        16.69044026226159    4.06882962864304    0.78454641928564
H        16.81040357495052    4.61987588657389   -0.13759156369704
C        19.19232714017874    4.93474603194341    7.23952004944600
H        19.76500978525434    4.33645536294259    7.95867416033144
C        16.61815079606827    1.99602326912772    1.96280097595622
H        16.67182400797529    0.91587062315196    1.96253672035660
C        11.93562960638449    6.22516612120800   -0.52282803988106
H        11.30541317290270    6.75418764280952    0.19618863366391
H        12.56858223041851    6.95534500587992   -1.03285534069897
C        19.69523193956629    6.37730296541330    7.26348251252532
H        20.75732517987659    6.40458778575116    7.00765044059108
H        19.58143877819373    6.79361833970235    8.26696483481404
C        16.76612589664761    2.68512003144219    0.76596982971534
C        17.33642037723666    9.96935761011517    4.22459067602028
H        18.15110825838637    9.87612466901096    3.52116980335196
C        16.97508720932974    1.93928256770617   -0.51750557915182
H        16.03713636160296    1.49111915460593   -0.84780074911525
H        17.69867991886300    1.13749108431110   -0.38403087670804
H        17.32711737302371    2.60527729135006   -1.30114923781747
C         8.74862829549880   -0.61400262049836    3.78302999990022
H         7.76907150255273   -0.31383789470801    4.14682896468355
H         9.22654448344497   -1.24419068569945    4.53199557491387
H         8.60957744057024   -1.21662932791553    2.88515356833417

