34
CSD_code = EGEDAV | q = 0 | S = 0 | Stoichiometry = C16H10CrN2O5 | MND = 6
Cr       21.10765972636900    3.29075124616950    4.04349877042611
O        18.65619697025038    7.51904564388275   -0.76521487932508
H        19.19916676388010    7.71619789856224   -1.53823579213154
O        20.56739230375942    0.61491134622570    5.28354287189638
O        19.09171535962102    4.10775662542579    6.11467147535469
O        18.64134534934867    2.70444708608225    2.45113487613873
O        22.24181060934835    1.61581495708345    1.82159218783293
N        21.58881688799452    5.07078033042158    3.25280458176888
N        22.84806649885696    3.75951264039498    5.04030294669339
C        20.87249485011985    5.70364295487744    2.23295168273962
C        19.50297678943510    5.93318312219960    2.38242609081466
H        19.01771705737413    5.64199031537096    3.30248839985502
C        18.78207790808591    6.54651086265415    1.38304233496991
H        17.72681612211974    6.73579107344237    1.49385661716389
C        19.40813498656541    6.92908737145244    0.19688638798184
C        20.76939760349767    6.69749137451277    0.03888759516714
H        21.26190256780343    6.98108640861712   -0.88180370718445
C        21.49663863122181    6.10376710547623    1.05275577575804
H        22.54989379720947    5.90639906336637    0.91160268807251
C        22.71576493583621    5.60701836992530    3.63244274977334
H        23.08253956547030    6.54643600235382    3.22464907717434
C        23.43880811311047    4.91832744137807    4.64233688550408
C        24.64392591600748    5.37631151005103    5.19704385320916
H        25.06900116283880    6.30272771088194    4.84228689851138
C        25.25531589418426    4.63500478826330    6.17963921699664
H        26.18264704378559    4.95922151969282    6.62579151945476
C        24.64458200832193    3.44685817135928    6.58932664714627
H        25.08939458931028    2.83601782328173    7.35803467459920
C        23.46057455182926    3.05951504514060    5.99684757683873
H        22.97175392644308    2.14236353506256    6.29870159274240
C        20.82993589322372    1.64847513761411    4.84108791733737
C        19.94121453176529    3.90526071938973    5.36705909405563
C        19.58741060854680    2.99717214659938    3.04271362455580
C        21.92331047646354    2.32142265278849    2.67094776810862

