69
CSD_code = EGEFAA | q = 0 | S = 0 | Stoichiometry = C30H34N2O2Zn | MND = 4
Zn        9.81976186242314    9.20685560742399    9.03616170536712
O        11.61929216290644    9.13763466848548    9.28787203131273
C        12.48888110912762    9.50373835025241    8.35348402785681
C        13.84275865991186    9.16959479746208    8.49091545151624
H        14.15718274863162    8.61549859347939    9.36284662761672
C        14.75046491894961    9.53744904157986    7.51789677545414
H        15.79088794911287    9.26578050516410    7.63380419361340
C        14.34825622218637   10.23693133921506    6.39415807802658
H        15.06493321721583   10.48941857387828    5.62690229414126
C        13.00846831756716   10.58641309750864    6.23696274468463
C        12.10235255285333   10.22598131068787    7.22432440485832
H        11.05807459651660   10.51367912134811    7.13685961545814
C        12.54719945751419   11.31549426888304    5.04551107498615
C        13.30838908843083   12.34375877010378    4.49400098928870
H        14.24484903455180   12.61993162324868    4.95729312096905
C        12.86624357992850   13.02707406272667    3.37626380039584
H        13.46699046071304   13.82473007070604    2.96183012424956
C        11.65593915627360   12.69587273122138    2.79008170712484
H        11.31076914022122   13.23139550584123    1.91727277051159
C        10.89077967985083   11.67488984787208    3.32890138200415
H         9.94461763291796   11.40978826667953    2.87895014347114
C        11.33260019816913   10.98919282238661    4.44495019648266
H        10.73910516438946   10.18154682751224    4.84545087706400
O         8.63539424481826    9.32547059692691    7.65862017449550
C         8.87571231998204    8.77778742414304    6.47579936955500
C         9.83923518789218    7.77963417749477    6.29737852440600
H        10.41793084938973    7.46188244884726    7.16216463568520
C        10.07049621948721    7.23370677476303    5.05100331170460
H        10.82366639002825    6.46695253983571    4.93476525387395
C         9.35430336254321    7.66783619156285    3.95058066094080
H         9.53290315446624    7.22937871254959    2.98036305042961
C         8.38779883064703    8.66130032194942    4.09892014752176
C         8.14987160459964    9.20054414459248    5.35580917067596
H         7.42587749626152    9.99179090674141    5.48356147926861
C         7.64109134880075    9.15366599966879    2.93095932769854
C         8.28899797008663    9.37009140129411    1.71645925995149
H         9.34985025724738    9.17958062216799    1.63923261593395
C         7.59358860438517    9.84697421335639    0.62089534058631
H         8.11242402235906   10.01725709453383   -0.31193292676988
C         6.23724326380431   10.10958087665588    0.71637545493146
H         5.69384853628227   10.48062486450487   -0.14056400761831
C         5.58140837514136    9.89309373761851    1.91668073119903
H         4.52166693489569   10.09135654959187    1.99578007047600
C         6.27703441211638    9.42227834017753    3.01464797830411
H         5.75826835402668    9.24299523542263    3.94526699362704
N         9.07511980296987   10.63148451669393   10.44258228937151
C         8.18790238657075    9.82495985400091   11.28179655838449
H         7.25001604379820    9.68780414100237   10.74118068274774
H         7.96745753103769   10.34259899326623   12.22687385072042
C         8.79509607923846    8.45709461551071   11.58537042827608
H         9.74759804734488    8.59559228268724   12.09946974545409
H         8.12158395820477    7.89984795304029   12.25309012046367
N         9.05398924980920    7.69976585251108   10.35988188113455
C        10.13461394991462   11.24160707734044   11.24191236806591
H        10.78534947690294   11.82286290429471   10.59255451881130
H        10.74313041513147   10.47353531831201   11.71072371375240
H         9.71709604797904   11.89880366492751   12.01509529570750
C         8.31107300132586   11.68405050670111    9.77464100156171
H         7.58706946838321   11.23367082365532    9.10013546512565
H         8.98606589842610   12.29716450030721    9.18112806131732
H         7.79479098462924   12.32279493433658   10.50154862450542
C        10.04539973015014    6.65698011841661   10.61900584579264
H        10.99378114720730    7.11686164269922   10.88638720708544
H        10.19808272965511    6.07164658377826    9.71459370807706
H         9.71754181443266    5.98728959413122   11.42338542812677
C         7.82774359026938    7.08218032036692    9.86073321026151
H         8.04462329464255    6.54032135631779    8.94264578284704
H         7.09120896535422    7.84470346110691    9.62350737544240
H         7.40725773716164    6.38664600645408   10.59789608361991

