47
CSD_code = EGEFAX | q = 0 | S = 0 | Stoichiometry = C20H19N3O4W | MND = 6
W         4.45416709584944   11.49128483116303    2.41703185411895
O        -2.35033352474364   10.91232112601176    1.66578913511886
O         6.82684282519348   13.52763519813526    2.39420225739933
O         5.15846212159731   10.82093195749284   -0.56198244072100
O         2.54464040281329   13.72889564856331    1.37186797486426
N         3.02521342796967    9.95362167193691    2.59210686595903
N         5.55143742876129    9.80521181630506    3.17619472324186
N         3.39116671716803   12.27543011014451    5.34182360904107
C         1.67013527702181   10.15570588366923    2.34669108651830
C         1.26397819389154   10.71198314842301    1.13390441974707
H         2.00644045589652   10.93376395107911    0.38089110841537
C        -0.07058276862689   10.95570412520210    0.88993330735229
H        -0.37563738959862   11.38152557530226   -0.05634437582443
C        -1.02830669862395   10.66804960565096    1.85897816694577
C        -0.63010756657501   10.11256119052388    3.07111305085967
H        -1.38016607396617    9.89812325823666    3.81583715448845
C         0.70269441702388    9.84548483795318    3.30471241397872
H         1.00792918523465    9.43317989959330    4.25628038347218
C         3.41884961086027    8.83215654667656    3.11630152527341
H         2.73635164924799    8.00369416055801    3.30208580444023
C         4.80784225858248    8.69787783321464    3.42334593652396
C         5.37216859539622    7.52166802052634    3.93498639453607
H         4.73899102020212    6.66585830951120    4.11456747452186
C         6.72353433794046    7.48182334332422    4.19573802164752
H         7.18602957245414    6.58994036305884    4.59021537839432
C         7.48212395241516    8.62243264741263    3.93580999122317
H         8.54368785964648    8.63418439521092    4.12416723927968
C         6.85531134461062    9.74606831644826    3.43171921331801
H         7.42255095123072   10.64450284261800    3.22292609997701
C         5.94017086051522   12.79259679892088    2.40668043386166
C         4.92170577911741   11.03687559412413    0.53987917284275
C         3.26134938379965   12.90972970840323    1.74944856425606
C         3.87411002468058   12.01423744903183    4.31434476183336
C         2.74367011403841   12.65145243431290    6.53596469097185
C         1.58884134316259   11.67208415919038    6.77155827464952
H         0.89597733898577   11.69926923928582    5.93293965575195
H         1.05441909993184   11.94113726366703    7.67884849359181
H         1.96815894871060   10.65752567258312    6.87767386544692
C         2.21680605473086   14.07838004515863    6.35850816333646
H         3.03867697278147   14.76213995276281    6.15946651201738
H         1.70228109913089   14.39818566791638    7.26093437087225
H         1.52394368152034   14.12244675065958    5.52129696054819
C         3.76032954961513   12.58309158924038    7.67954640501729
H         4.15190555700944   11.57300119884106    7.78099645821204
H         3.28630043384848   12.87046733556873    8.61434254474982
H         4.59155933516441   13.25713282698700    7.48553091712589
H        -2.48572025563156   11.31552569940315    0.79954598080508

