50
CSD_code = EGEHII | q = 0 | S = 0 | Stoichiometry = C15H24N8S2Zn | MND = 5
Zn        7.18826768217515   10.56373528787821    9.28654025831566
S         5.43372526035877   10.99866370461480   10.94439567156627
C         6.00355645887235    9.75703000657284   11.99397239897945
N         6.94870388239380    8.87434325607275   11.76679771321997
N         7.55003243799926    8.96176101356309   10.57801395650145
C         8.46875585950233    8.13190170188424   10.19966539841453
C         9.01521110604315    8.35492379621079    8.88093527926593
N         8.53340884027318    9.36833908827232    8.23502787528034
N         8.92435074673324    9.68595695923037    7.00234682449665
C         8.27568861823182   10.67919763643373    6.42647498491351
S         6.93674533784151   11.55099076231480    7.05412947809327
N         8.74910472769922   11.01366123033571    5.20879716623717
C         8.14529289884103   11.93202720724765    4.28518133413195
C        10.05875687890457    7.44015586362411    8.31700590786386
C         8.94804497252709    6.99182520830525   11.04554621259279
N         5.39698165698359    9.72439840966381   13.19703094922145
C         5.59561864097287    8.69267833300132   14.17930098739496
N         8.56667202242108   12.02011070478312   10.09936594507291
C         8.45239142715780   13.30646083712754    9.76977152836612
C         9.15097002862421   14.31875891851994   10.38183048489268
C        10.04812763671910   14.02320976530848   11.42581483453559
N        10.75715063091887   14.98445176424567   12.06411642892329
C        11.66693964529978   14.63604320903848   13.12885580021227
C        10.58138161967114   16.37386987983935   11.71403326378852
C        10.16149352363963   12.65945394937075   11.75886765521952
C         9.41525793378118   11.72518397469027   11.08213369620715
H         8.91468284862501   12.56236140548477    3.83645370762809
H         7.43800435136025   12.55322643348196    4.83036559003203
H         7.61061455680517   11.40338973865350    3.49014697423667
H        10.35070593496252    7.80899499740670    7.33737790921639
H        10.93207395337958    7.40473410104701    8.96637574062723
H         9.66724218896663    6.42882223881886    8.21660348940302
H         8.79607239296298    6.04427380343729   10.53169758280291
H        10.01072277721554    7.09433749302585   11.26224337586703
H         8.38892141332516    6.98876118471626   11.97747363090157
H         5.63567726839320    9.13584167250151   15.17549756589954
H         6.53763291588958    8.19726479438789   13.95935333616804
H         4.78938036211426    7.95296649589361   14.15233397737151
H         7.76131142654728   13.52631069094270    8.96806711245668
H         8.99172222755978   15.32957149751615   10.04840801499146
H        12.15292072051929   15.53424224862961   13.50062755431289
H        11.13855787004270   14.16284692774159   13.96182017444779
H        12.44233804313354   13.95231352655004   12.77228869329034
H        11.20938505396973   16.99158975750878   12.35058811573863
H         9.54245933564504   16.68564773895546   11.85281597403458
H        10.86562267489406   16.55548343226780   10.67366869100758
H        10.81956475413880   12.32619657932373   12.54295181622281
H         9.49518912518739   10.67789637609578   11.33817671752025
H         9.48509046709688   10.41495931340393    4.86368977325162
H         4.61017686268153   10.34553508406542   13.30432244886598

