60
CSD_code = EGEJOP | q = 1 | S = 0 | Stoichiometry = C27H29CuN2P(1+) | MND = 3
Cu        8.87277586383765    4.90732073928036   11.14225086879682
P         7.14654479868494    3.67425192836555   11.82661792735377
N         9.96194228919171    6.11118312467719   12.44618239550609
N         9.70616609924269    5.36546196246847    9.41252273969104
C         9.06417694497634    7.11254899411115   13.02259873787735
C        10.47633806147608    5.25717559906359   13.51837052387015
C        11.07070023888964    6.76644704626995   11.73889639755910
C        11.71872922331386    5.85911674313747   10.67990461077754
C        10.94961093245217    5.85793477094695    9.39096792485765
C        11.50188717399786    6.35890484928571    8.21823347857627
C        10.75928251662777    6.33935415894105    7.04996159703284
C         9.47267622766420    5.82104093411436    7.08639498210778
C         8.98716963420712    5.34968466118844    8.29045464050366
C         6.62949991113772    2.42203501868132   10.60913640092755
C         7.54661243212798    2.05983059933217    9.62680818233565
C         7.21360015369619    1.10393862766021    8.68446205880956
C         5.96107833613185    0.51225897624611    8.71627358904091
C         5.04325987153547    0.87621340575956    9.68952757880711
C         5.37151075996046    1.82897568742787   10.63665511549403
C         7.34234871352109    2.71369994708709   13.35836464067534
C         7.62786081676643    1.35295880726910   13.33426457029933
C         7.84735776326613    0.67456881604526   14.52059046503585
C         7.79616031579696    1.34798194948407   15.72982266870466
C         7.52679377917204    2.70800358158490   15.75699213356614
C         7.30794753869426    3.39166728215381   14.57643500026344
C         5.62556314702201    4.63103325120451   12.10763556852163
C         4.61714103987701    4.22957649044353   12.97847349152630
C         3.47384245368771    4.99847053022099   13.10364440761555
C         3.32994108463007    6.16364208857326   12.36729754875161
C         4.33486239201658    6.56965669070202   11.50362793087761
C         5.48056075294872    5.80691939110478   11.37654733697987
H         9.58866120965536    7.75870835011346   13.73492023837279
H         8.63920855830397    7.73113925442619   12.23382499212089
H         8.24849102683303    6.61114918499941   13.54135780314624
H         9.65050539773448    4.73493800754691   13.99960153158448
H        11.15930729267101    4.51202840487476   13.11629328609883
H        11.00893072727116    5.84722854759523   14.27275434694784
H        10.68594890287652    7.66062054465336   11.24186666847384
H        11.83551876879221    7.08516707150287   12.45862514073888
H        12.73394400730630    6.20652379565425   10.49017041445249
H        11.77667559403803    4.83717396299784   11.06131163186494
H        12.50504483092118    6.75475381654942    8.22414119132532
H        11.17570933990152    6.71852201738369    6.12983993167846
H         8.86003007292648    5.78124506701933    6.20104798975024
H         7.99156137027035    4.93434708192363    8.36736119741021
H         8.52208663480914    2.53370365182363    9.61546995472348
H         7.92792212451970    0.82105847292851    7.92594037750695
H         5.69831785454026   -0.23195838622170    7.98038410295155
H         4.06740819156803    0.41543879789381    9.70975302525124
H         4.65356319059418    2.11486796244668   11.39147206243211
H         7.66849114985791    0.82727331352202   12.39068915060231
H         8.05854588795628   -0.38372707938631   14.50003729158365
H         7.96546811908299    0.81464876949565   16.65232952497541
H         7.48638859753065    3.23353019514917   16.69920131968939
H         7.08583834798862    4.45160343816426   14.59179279754976
H         4.73089408185480    3.32787373688727   13.56408620281100
H         2.69142125822053    4.68670567793939   13.77885279290967
H         2.43524253187708    6.75800510864066   12.46985184073065
H         4.22447051270855    7.47994827601954   10.93392447716743
H         6.27896315072194    6.11362630456289   10.71008320228940

