112
CSD_code = EGELEI | q = 0 | S = 0 | Stoichiometry = C44H63N2P2Sc | MND = 5
Sc       12.01674606236726    3.97249706916699    4.46126003568754
N        10.79571190780653    2.19071372323900    4.27977118685662
N        10.74939803980844    5.60461669666206    4.30906824524861
H         9.80686686064008    5.19810136367769    4.30740718530744
P        10.97867392300822    3.39428783997511    6.94181355065679
P        11.75324512584021    3.54358405163577    1.79021378689974
C        11.89228679795168    3.67134384992324    8.55126845232699
H        11.55424101752594    2.95886128906139    9.31033107349610
C        11.61342467343789    5.09079399562817    9.04132766690928
H        12.22782361038173    5.31502616119945    9.91228255253061
H        10.57050668825059    5.21720073027670    9.32351799735680
H        11.84882815331517    5.81727722669789    8.26407079875613
C        13.38514651032921    3.47129234419619    8.30604565108671
H        13.95449210407239    3.73206436325375    9.19726106959879
H        13.72788361259394    4.10128511199040    7.48090348090059
H        13.60310907378424    2.43565042388047    8.05394838578078
C         9.17825042287257    3.48701019735506    7.49099750749186
H         8.99060708055579    4.54839961680657    7.70030437978616
C         8.29138946350232    3.05302607743619    6.32716536565582
H         7.24773600220297    3.28143174533463    6.53825153069765
H         8.38159896169870    1.97977842097813    6.17093374701556
H         8.57462719113011    3.55514201756927    5.40163858041258
C         8.85164625706694    2.65943964483512    8.72994592928623
H         7.77756730519473    2.68675241059395    8.90941546116725
H         9.34650961340216    3.04255007672162    9.61881165957120
H         9.14283225394800    1.62110873416050    8.58175300721560
C        11.14338073044144    1.61075968365498    6.60450592265378
C        11.42301072820941    0.65244173043224    7.57255734341052
H        11.57556732599796    0.95589838265869    8.59902709338255
C        11.51173504241963   -0.69326455410965    7.25933947800454
C        11.80109717145269   -1.72370720826641    8.31010828904587
H        12.64964554767208   -2.34040843988486    8.01645635619158
H        10.94296994040297   -2.38277898091257    8.44479177843259
H        12.02693552549781   -1.25397291609795    9.26466382801162
C        11.31795165392938   -1.07144064631574    5.93155389175381
H        11.38841303021967   -2.11696851210023    5.66521668654096
C        11.05389955370397   -0.14241299024044    4.95373646109623
H        10.93342939902146   -0.46142146872797    3.92803612810849
C        10.96607855012737    1.23060289840301    5.24906723798376
C         9.99209489916382    1.93527517451207    3.19718850205393
C         8.85066149207509    1.11415628416124    3.28910465605155
H         8.64518421932200    0.61519671586900    4.22572502978226
C         7.98844810296293    0.95008301239159    2.23221644279023
H         7.12052728883148    0.31561800343015    2.34873261363096
C         8.20325652955656    1.59564921366650    1.01596403373914
C         7.24593272226299    1.41412430948603   -0.12441897411643
H         7.53933500076671    2.01968305732159   -0.97870598092149
H         6.23793259062633    1.70095000470956    0.17398674312597
H         7.21498901427444    0.36966603063430   -0.43511879280280
C         9.32598590208113    2.39618521125102    0.89856753765630
H         9.50496457404870    2.89831295766906   -0.04169318582817
C        10.22380905011976    2.56757611052225    1.94820858373111
C        12.89221678586999    2.29649359696489    0.95148180677411
H        13.86456942851204    2.80066974528962    0.87156424583553
C        12.44403313616781    1.83035296737241   -0.42992976214048
H        13.11236630460013    1.04435153042730   -0.77938256403797
H        12.46974945673827    2.63553745719872   -1.16005996312889
H        11.43653568692975    1.42072764694806   -0.38596710834981
C        13.05054719678109    1.09767124056986    1.88316522412927
H        13.81649700155765    0.42237418171425    1.50449891796696
H        12.11267755466814    0.54807734175339    1.94926548496787
H        13.34022148708771    1.41687177585995    2.88700912800280
C        11.40663936911747    4.76205321952946    0.41445214394215
H        11.12403758661004    4.22387261125902   -0.49625580638217
C        10.27015861768472    5.69324651537212    0.82395217902952
H        10.04040681745334    6.38494584902652    0.01430936091630
H        10.55323142575239    6.27800182500637    1.69777479111623
H         9.36825162597049    5.13047297776153    1.05983692519283
C        12.68083897862675    5.56144078597961    0.15303877630628
H        12.50351152435684    6.31323611202240   -0.61478237618905
H        13.49283963122818    4.91804115314448   -0.18068120659622
H        12.99357376165147    6.07179665639931    1.06363976736307
C        10.62823604341546    6.94572108765955    4.09426071340396
C        11.78954222651096    7.76526133421986    4.05242966764111
C        13.15223531118503    7.12032462564770    4.18212826551344
H        13.08146980318707    6.10796840475758    3.72859195413861
C        13.51096579148171    6.94385408810149    5.66300731539842
H        12.73751009903665    6.35271110776468    6.16170774352629
H        13.56984119956914    7.91639015442078    6.14885233009996
H        14.47038518038749    6.43821373097361    5.77131051724599
C        14.26806953963681    7.87761363814218    3.46216358702130
H        13.97221511088371    8.13022268696595    2.44610047179527
H        15.16530309377762    7.26254109946927    3.42126170580225
H        14.52039511686284    8.79539623640071    3.98759821672188
C        11.66822385969699    9.13514807006867    3.92526922033608
H        12.55256020769455    9.75387186893555    3.92166978577020
C        10.42996079589298    9.74004505333196    3.80625972425101
H        10.35082465407855   10.81358727241480    3.72154778885432
C         9.29520249890099    8.95006260771617    3.78491009351640
H         8.33407676281823    9.42861706876142    3.67469723604482
C         9.36447343805939    7.57491321374266    3.90238836583903
C         8.08821222340296    6.75446068151742    3.87589239417919
H         8.31023071773935    5.75638998959581    3.47238875581078
C         7.55113737298229    6.59650461582893    5.30293033773899
H         8.31695499937319    6.17942713060949    5.95468149940224
H         6.68010298502911    5.94300824681263    5.32021295493613
H         7.26428262017154    7.56876877016612    5.69872042008301
C         7.00655660307215    7.33854001031011    2.96559895568140
H         7.42192746939501    7.58593146943651    1.99122701254116
H         6.56362432697335    8.23363492687032    3.39469056577439
H         6.21087458234949    6.60803621450283    2.82710639752895
C        14.14340941491026    3.31675269387490    4.53479762579473
C        14.53432200004454    2.14409058130536    5.22065945073610
H        13.80323602888610    1.61125902516269    5.82870103586278
C        15.80998326220437    1.60475254296815    5.15455718780370
H        16.04195863878718    0.70335802131606    5.70732938261231
C        16.78406248041147    2.20955839833834    4.38154758249728
H        17.78170988457514    1.79587067686122    4.32920491625208
C        16.45439961730077    3.34732905839904    3.66879776057327
H        17.19922391079019    3.82869822102671    3.04759914394708
C        15.17294474376742    3.87289885595288    3.74313005819167
H        14.97066770953466    4.76429308369353    3.14851590320569

