50
CSD_code = EGEMUY | q = 0 | S = 0 | Stoichiometry = C15H29FeN3S2 | MND = 5
C         6.75554873739921    3.21109286472842    6.89178964379594
C         7.52585766818359    4.74188848220238    5.05079830283517
C         6.33790058347803    4.30458116507957    5.90275688107874
C         5.67397359248813    5.40989945266105    6.68108173761891
C         6.47392930592392    6.60757200924384    7.10663501144440
C         3.51011274963377    1.16028995435548    7.73215715688593
C         1.14889386661907    0.90217958568042    8.56544254955667
C         2.06659253752453    1.65919457643286    7.61747671714579
C         1.64407332558236    1.66400496209146    6.17252053700764
C         0.54170098861468    0.77509841132338    5.68609168046716
C         1.85994249656516    2.97685083541009    4.16133214446319
C         1.32446680986397    4.39591320103622    4.39211091833334
C         3.65824222951159    6.27097850199931    7.60007614526070
C         2.90601908942174    7.08712369241864    6.54164323117016
C         1.79929224802257    6.28566074512616    5.86413267777724
Fe        3.41877659713983    3.78940747192814    6.27584139761166
N         4.43177912056036    5.23389491331910    6.95912637977740
N         2.26420787634223    2.53998628413303    5.46974257558519
N         2.33585577348369    5.13740438454895    5.14397513185028
S         5.05638463243311    3.61812140107218    4.76058912172208
S         2.05383300701888    3.46447401723362    8.05987852535608
H         7.56860384948618    3.56243170024223    7.52773795183244
H         7.08577677577891    2.32644059159136    6.35179161114054
H         5.90552058757673    2.94775965625705    7.52262990692457
H         8.40488194685632    4.96381889331719    5.65487650763895
H         7.26687353319002    5.61178304439614    4.45141014149796
H         7.77788726176617    3.93004524313910    4.37199745973465
H         7.52461575429059    6.47691959205945    6.87489076024968
H         6.37663955795110    6.75963777076113    8.18180708693150
H         6.11969253990008    7.50819714478934    6.60494454851483
H         3.56749176073709    0.09407937773036    7.51055596166694
H         3.88496026572806    1.33402647533025    8.73906734289333
H         4.13803937875038    1.70069789391031    7.01284756062064
H         1.19980534968057   -0.17339331568204    8.39772552020361
H         0.12105771240742    1.23877808412740    8.45511408240221
H         1.45967440457059    1.10479643184179    9.58809187884781
H         0.52945703265928   -0.15462134629742    6.24735888331139
H         0.66986809093541    0.54157006298721    4.63140726227272
H        -0.42454931239254    1.26348377714052    5.81826390162048
H         2.75031345969631    3.01548771018679    3.53062361575501
H         1.09755769950359    2.34906656509050    3.69265641557526
H         0.42699875927947    4.33148791964898    5.01329434271537
H         1.06909328051940    4.88282279384530    3.44306542690921
H         2.93608677637347    5.77940770523357    8.25194478010227
H         4.27961331225727    6.94102249533051    8.19925313887681
H         3.61474430451878    7.43984764827028    5.78745970699825
H         2.45935206023821    7.95701839722928    7.02452036470833
H         1.23781974995082    6.94658335749973    5.18601451168300
H         1.11952638936546    5.90090775035229    6.62871035899600
H         3.05621448261312    5.45097966765226    4.48994050262719

