55
CSD_code = EGEPIR | q = 0 | S = 0 | Stoichiometry = C20H20N8NiO4P2 | MND = 6
C         8.10019973404160    1.40120820461687    4.37074678788137
H         7.77101860207380    1.73895937995126    5.34208611022780
H        10.74128565212124   -4.04612400070656    1.30407221808991
H         8.73160441675034   -2.28276240684030    3.43156974074485
C         8.74589466270500    1.82018119292827    2.11958497559015
H         8.94565975529711    2.50465137411075    1.30750374311296
C         8.31520329315060    2.30532448505461    3.33396894749157
H         8.15840199765794    3.36225839828883    3.47141429694040
C         8.31664659252899    0.06863431545437    4.13085552572998
H         8.15904074053762   -0.67136805860617    4.90096539444824
C         8.74700668854103   -0.35692400301124    2.85646769202863
C        11.75328750255670   -2.28392760578727    1.20418962760741
C        13.00254670085347   -2.87888472388967    1.44152516771325
H        13.07189211794659   -3.95121040582429    1.54738067856335
C        14.11387680751566   -2.07403275878045    1.54368943359170
H        15.08670664350426   -2.50546588659222    1.73023428070173
C        12.69468907996741   -0.20003710026340    1.16276301921607
H        12.52907649276796    0.86141149692113    1.04274446198955
C        13.95760342629617   -0.69839978719873    1.41431590427575
H        14.79962551433529   -0.03147387771352    1.50293028591400
N         8.96733107698870    0.52541175579103    1.87101516364722
N         8.95517519576223   -1.67975058597929    2.65303749393010
N        10.63252448468891   -3.05902785892072    1.12927898972797
N        11.60992241632654   -0.96584256222698    1.04419683382459
Ni        9.68335941805129   -0.00003814956827   -0.00004963890065
O         8.18366456309720   -3.76285634104490    1.29320539009400
O         8.71362710784042   -1.57852137000132    0.06146673707150
P         8.99827063468094   -2.55269851318181    1.16492828083688
C        11.26608399734946   -1.40138749455715   -4.37095672541412
H        11.59515637631851   -1.73916072405768   -5.34232170843915
H         8.62562161170901    4.04617230281547   -1.30399399187832
H        10.63491536528976    2.28261553958683   -3.43175269243524
C        10.62059040310778   -1.82031549570095   -2.11973543064271
H        10.42086657090980   -2.50476925334659   -1.30763082352971
C        11.05113772580224   -2.30548785039794   -3.33415527316720
H        11.20786974210883   -3.36243086040228   -3.47161026094285
C        11.04971399129795   -0.06880197734325   -4.13105928773453
H        11.20727761824976    0.67118669189110   -4.90118951018940
C        10.61948330533984    0.35678359121214   -2.85664102065810
C         7.61349124329038    2.28404760956883   -1.20406108664726
C         6.36424095875400    2.87910162957255   -1.44121085387833
H         6.29495340628490    3.95143803881111   -1.54700093396597
C         5.25284018456142    2.07432788448975   -1.54327811919362
H         4.28001388292361    2.50583448585393   -1.72968022919061
C         6.67195178877926    0.20021655241508   -1.16263456806580
H         6.83749945909859   -0.86124733636479   -1.04265861835633
C         5.40903712444074    0.69867670003099   -1.41400542788121
H         4.56695592968062    0.03181017739519   -1.50254438139033
N        10.39922998246606   -0.52553462527195   -1.87116018997105
N        10.41136954577691    1.67961787638532   -2.65320211422495
N         8.73432428082942    3.05906111786995   -1.12924967203423
N         7.75678510322338    0.96594491401624   -1.04414620757308
O        11.18323200797742    3.76265345545090   -1.29346471323810
O        10.65319300864282    1.57837802628483   -0.06165251435555
P        10.36852406720146    2.55257441681192   -1.16509118709237

