98
CSD_code = EGETEP | q = 1 | S = 0 | Stoichiometry = C29H63FNOOsP2(1+) | MND = 6
Os        3.68186047624963    0.17287215699088    4.08022590664887
P         5.25213686936052    1.31248924717094    5.62857027445942
P         1.80238461728021   -1.22917426308500    3.26826062210205
F         3.54088079807610   -1.04100288739556    5.59809937843105
O         5.33953883692295   -2.45942175621758    4.45259286253838
N         5.29365689397592   -1.45099772773239    3.49660743719986
C         6.11729114684874   -1.62505481015800    2.53369834705435
C         7.01031102905422   -2.81952299600627    2.48462363164730
C         6.22919346845156   -0.63551081848940    1.43162288057615
C         3.75078321418871    1.28265832892655    2.66071199989382
C         3.62531850771407    2.21904092758174    1.57186535655583
C         2.37019829431198    3.11538827275285    1.71627209543118
C         2.11034684482789    3.89268540510907    0.42773000102541
C         0.85987544540773    4.75626184024630    0.58078538627561
C         1.00718129753713    5.71472553692572    1.75806727377182
C         1.28388295638971    4.94154415929650    3.04395458744374
C         2.53534852384282    4.08284282566248    2.88478341343715
C         4.39277474803552    1.99776769944778    7.14015544309284
C         3.61779671452805    0.90802345979229    7.87683881833868
C         3.45930558803309    3.15936301377795    6.81211456951800
C         6.54830523604835    0.17512855177408    6.37183363558248
C         7.11107160750298    0.58422393865059    7.73230142899935
C         7.69725067974059   -0.06834742436837    5.39335989439098
C         6.06249854786220    2.84794562156675    4.91970039573425
C         6.96978076040310    3.62280524210053    5.86937565052004
C         6.78620566263859    2.56890546065059    3.60476572356980
C         1.96474991023819   -3.05011404817922    3.69332290384416
C         2.88031425854361   -3.77240200324150    2.70535663122832
C         0.65625853390322   -3.82415320932472    3.84678498873182
C         0.19791772380040   -0.74791960673368    4.09260755312168
C         0.34375662976902   -0.78908645279795    5.61203887947034
C        -0.28195849313741    0.63369831049339    3.65628164918695
C         1.38623219147270   -1.02065928633531    1.45262848192778
C         2.59950413558197   -1.25215447665378    0.55504502490646
C         0.18666672378538   -1.81591202290879    0.94950826701716
H         2.61301132196867    1.08717616578887    4.68853208136762
H         4.66903997987035   -2.19356548216924    5.12246316937126
H         7.63760897876140   -2.84565876063531    3.37604950806747
H         7.63416616000448   -2.81185400465573    1.59737388415671
H         6.41061626049312   -3.72992740743012    2.50639618338386
H         5.53720855359115    0.19177957578410    1.57350694768313
H         6.02671603507053   -1.12344805137785    0.47900620081717
H         7.24850546451816   -0.25233231298624    1.39290670965208
H         4.50995618777725    2.86396330890890    1.51565861407370
H         3.55682476380064    1.67027823259420    0.62439164497823
H         1.51306440788859    2.46555961847680    1.91777663771034
H         2.96787400391430    4.53254746500135    0.20818911525335
H         1.98128148862247    3.20414470805972   -0.41049443960605
H         0.68980149144217    5.31841284654137   -0.33827728963250
H        -0.00677591732346    4.11206949071528    0.74431011214819
H         0.09779910474432    6.30628846718186    1.86862479411676
H         1.83175780190747    6.40363647728258    1.56420133684619
H         0.43058265778569    4.29997495948822    3.27408327965227
H         1.41503952613302    5.63500529274522    3.87577023228690
H         3.39450720071130    4.73176321384938    2.69916294339984
H         2.72881874643714    3.51197922106488    3.79622476810434
H         5.19240468912959    2.36493754987439    7.79301515528137
H         3.26351287640586    1.28777080702184    8.83329046625211
H         4.22560240148870    0.02629646017950    8.06443389048753
H         2.75383740334976    0.59925622521176    7.29484854898717
H         2.72195016374778    2.86011746596872    6.06873738863269
H         3.99672114216853    4.02877402267302    6.44370336906324
H         2.92652738432573    3.45496412974160    7.71383534822979
H         6.00971094906287   -0.77168215255651    6.50775798086523
H         7.87582179482059   -0.13817616234679    8.01515780911803
H         6.35585312360114    0.57988165062842    8.51257183263111
H         7.57814402805463    1.56425186453195    7.70051937527202
H         8.40634040602968    0.75511723979975    5.42226790595355
H         7.33882811212188   -0.18266277788904    4.37295534478665
H         8.23166757963106   -0.97491281521664    5.67306487755406
H         5.18698652220175    3.46587049089712    4.68070336872360
H         7.88275504761158    3.07175873330555    6.07850657625125
H         6.47808661948572    3.86076606709826    6.80834273773978
H         7.25587409079461    4.56192890826590    5.39823137465739
H         6.88181710876114    3.49062567306737    3.03381566262984
H         6.22571782721720    1.84799874977321    3.01238390433577
H         7.78658062280723    2.18306335994143    3.77403756173268
H         2.45855178869210   -3.04078750349516    4.67290875473961
H         3.23541684631620   -4.70213080052583    3.14681016253464
H         3.74603402607197   -3.16948349104627    2.44333966871781
H         2.34351801410611   -4.02205352248449    1.79346708179050
H         0.05610718323075   -3.79382852495824    2.94208881697995
H         0.05819087336200   -3.46418422686688    4.67875478867620
H         0.89975686502278   -4.86667371541670    4.04759545871544
H        -0.54273759023399   -1.49382563956046    3.78587326250107
H         0.96043271473357    0.04180155941507    5.94712085134191
H         0.80673783647512   -1.71109154188372    5.95540191358918
H        -0.63235057802862   -0.69903281823849    6.08465193298434
H        -1.12453883574041    0.93419799230342    4.27598629874935
H        -0.61263940493802    0.64236962361952    2.62104353349543
H         0.51404845044491    1.36712399029574    3.78429350285872
H         1.14700102410275    0.04937609266091    1.40306976264069
H         2.74885151444129   -2.30802911618077    0.35161675424975
H         3.49631904243019   -0.85419874582454    1.02596483823374
H         2.45411233101104   -0.75104291008119   -0.40037929235370
H        -0.04876428744522   -1.49934773995683   -0.06548231893463
H        -0.69761356752696   -1.65583453936446    1.56007339618178
H         0.40480126335650   -2.87979914591620    0.91667252560873

