89
CSD_code = EGETAL | q = 0 | S = 0 | Stoichiometry = C29H55NOOsP2 | MND = 6
Os        8.34885934662922    6.81814482237345    9.93627440518146
P        10.08373400838206    5.27760303105864   10.54187883909418
P         6.58265695937842    8.22294465595641    9.13143420655328
O         9.81238281791637    8.23173223176296    9.27700463702487
N         9.40952890432371    8.35708385714673   10.51808365706103
C         9.85126825181703    9.26425721832640   11.30657645089365
C        10.87768626691811   10.26991125212093   10.86884918778554
C         9.34694843801823    9.34487417520499   12.71422661251647
C         7.15388787747685    5.94609872618228   11.08563021798116
C         6.31196758747366    5.28986824455765   11.86396389539300
C         5.52977482350833    4.12942457903640   11.46740158189162
C         5.61040897400621    3.62207836428980   10.16663118175154
C         4.87143677894457    2.51857796433844    9.79646002911069
C         4.03487493361463    1.89421794425260   10.71061886967596
C         3.94591280733093    2.38862465486379   12.00135692241058
C         4.68394434272391    3.49410301249884   12.37827455430677
C        10.85016943839273    5.36102596595169   12.25522952938266
C         9.71713969699973    5.44082124800497   13.27363793543816
C        11.80410878223321    6.54150575046429   12.42143123585060
C        11.61837236323409    5.38326536659409    9.46761797358168
C        12.66277198028291    4.29285754090322    9.68790643394268
C        11.27586772994726    5.50991582292832    7.98531283977079
C         9.43758179422164    3.50697053262100   10.53846480578969
C        10.18305491983106    2.46049514983446   11.36496063445785
C         9.23463948329696    2.98997841830334    9.11606318150264
C         7.04746195059571    9.28548285758192    7.65617428185997
C         5.90084312562571   10.04008861898192    6.98965334186700
C         7.85697852252841    8.50950669598925    6.62013473688134
C         5.05727180822417    7.19873261834796    8.70987874088921
C         5.25284670059493    6.41239644539781    7.41558968445694
C         3.69863034818327    7.89693770861864    8.68639217832431
C         5.82643218156161    9.51561501594200   10.26621623056785
C         6.73279200921605   10.72717693543269   10.47038416586048
C         5.51702355592137    8.84893374704714   11.60292491474375
H         8.04706088110010    5.86750917913085    8.70773469427946
H        11.15620829108692   10.07548346278868    9.83405737993468
H        11.76716640538262   10.20799442648848   11.49713507354609
H        10.47958131092036   11.28253649263689   10.94722715020593
H         8.59075754149701    8.58270121335507   12.89379292558325
H         8.91204305162019   10.32606379678114   12.90798231191863
H        10.16525830417031    9.20205990567104   13.42124656875665
H         6.17145231826077    5.61424438451808   12.89282687254859
H         6.26667105197070    4.11768299371535    9.46483813052173
H         4.94470246752114    2.13742022928167    8.78717203918396
H         3.45694516998816    1.02909584112202   10.41894853756155
H         3.29599730317966    1.90758292804352   12.71949102274993
H         4.60777206273893    3.87243785907846   13.38913625302961
H        11.41392130517218    4.43839193584842   12.42028386394754
H        10.11299588037911    5.46481857663191   14.28860765855448
H         9.04589802502579    4.59021485788924   13.18096679606236
H         9.12982580578696    6.34130315314864   13.10390155052609
H        11.35944090893499    7.45654653372662   12.03983880293756
H        12.74657321065289    6.37269400436992   11.90503744186948
H        12.02649557857610    6.68893470050360   13.47830107241247
H        12.04806517188771    6.34820759561277    9.77133839120122
H        12.31222813966255    3.33838086325167    9.30376984400295
H        12.91860254619344    4.17712174109459   10.73843018960261
H        13.57343846162263    4.55261740510210    9.14762433082428
H        12.17173948364495    5.77341565001124    7.42303654901779
H        10.54065263761863    6.29758789325677    7.83762045616633
H        10.87943116711056    4.58344750213636    7.58084168897481
H         8.43909086082974    3.64164606317990   10.97603147228883
H         9.69107884744545    1.49907675301810   11.22023180681862
H        10.15421966476237    2.68091986033217   12.42815087444053
H        11.21845314616426    2.35258917495093   11.05455850133473
H        10.17604596540825    2.67547612975522    8.67149691436477
H         8.78358820967317    3.76218853180165    8.49740641863218
H         8.56431628206585    2.13204439429459    9.13041423616826
H         7.73492890392794   10.01676101167746    8.10427111983639
H         6.30848202843847   10.75302918662786    6.27253138117116
H         5.30266337376658   10.59440826475644    7.70894987603304
H         5.25345426356181    9.35782651787550    6.44480008959123
H         7.24951407948760    7.77787534087158    6.09608563137628
H         8.68494945706953    7.99512094022955    7.10228051851264
H         8.27043941030360    9.20061283245833    5.88546831249649
H         5.05475690788989    6.46980305330922    9.53195623168430
H         4.52949530391476    5.59993990373150    7.36736924406597
H         6.25035691098091    5.98025240084026    7.38607034968858
H         5.10799555945036    7.04499866288369    6.54287419515223
H         3.66616292705263    8.70866353175149    7.96521468291079
H         3.41773744258395    8.28055099179677    9.66295134055544
H         2.94483897994452    7.16535580675360    8.39681404879667
H         4.89138211166733    9.85817120225396    9.81389549984836
H         6.37327055893616   11.31761945846380   11.31315277095630
H         6.74508571602202   11.37267405657253    9.59481311692274
H         7.75137700728625   10.41661509202669   10.68660266165778
H         6.43704714437225    8.48488245674772   12.05650555218269
H         4.85691128361977    7.99463654138750   11.47239412732994
H         5.04407366228744    9.55551554155992   12.28438333543164

