50
CSD_code = EGEXUJ | q = 0 | S = 0 | Stoichiometry = C21H21NO6W | MND = 6
W        -0.56434030602761   -0.03458801148733    3.53994871765040
C         0.08071212921679    2.04904007245852    3.37867067316672
C         0.08921396722096    2.84940960240853    4.53768031250245
C         0.24139994009095    4.22931845434273    4.66947092268496
C         0.06337251289723    4.84057389474492    5.97612050704142
C        -0.77125013994865    4.37724130573628    6.91871638290955
C        -0.98006202891705    4.93435817938110    8.24070728631009
C        -1.92449688600390    4.32873489908440    9.07586107929525
C        -2.16460152162221    4.81221923735412   10.34664356937985
C        -1.46705234697496    5.91439961224114   10.81360955755430
C        -0.52724413490034    6.52635658602078    9.99905002001446
C        -0.28484134716230    6.04471238262137    8.72817127427957
O         0.44019070328362    2.73615580696806    2.27616247823770
C         0.45242655800152    2.11678137477190    1.00153044817067
C         0.52644098154115    3.21035913662097   -0.05455202839995
N         0.57662333005307    5.01621094974833    3.63490858067319
C         0.48405578613248    6.45972782224386    3.57337412299439
C         1.16724620316510    6.92258244680092    2.29146356366964
C        -0.97649044231222    6.91696655038769    3.61986594049221
C        -1.15029247916516   -1.93251966578079    3.76290842084796
O        -1.48250154967016   -3.02149797022109    3.87589827200347
C         0.79996817946986   -0.72494183757913    2.25460663764555
O         1.55330619776226   -1.23945940456563    1.56184769504771
C        -1.95477805817059    0.13858372627398    2.11732381830432
O        -2.80779027018846    0.16106387816782    1.35174525316985
C        -1.93439544853401    0.57212592939080    4.85825683808646
O        -2.71677362258886    0.89144887517153    5.63008655917156
C         0.77931235138638   -0.23976150298399    5.00519017504276
O         1.52873509354246   -0.37115550688426    5.85783899723429
H        -0.08575343456766    2.32225231154888    5.46422528610196
H         0.64401954655839    5.73273757322686    6.16164054091000
H        -1.38563407842345    3.51550799762563    6.69139190005941
H        -2.47006961686554    3.46794433496393    8.71655676801780
H        -2.89700955035054    4.32940611639665   10.97658998668135
H        -1.65323011607038    6.29484774809897   11.80677582960668
H         0.01997964233347    7.38514904099176   10.35977707270744
H         0.45334034947067    6.53524385610057    8.11223647295742
H        -0.45283883810961    1.51236973063052    0.86839952000324
H         1.32820577606834    1.46018458134436    0.93066946020678
H         0.55203904622464    2.76194507501133   -1.04303603891612
H         1.42420669604890    3.80943523433689    0.08152646269717
H        -0.34502629130535    3.85799427806227    0.01256467290326
H         0.64177249385479    4.53756667516226    2.74508155399563
H         1.01800578231904    6.88786347633721    4.43059443737255
H         2.19608919256366    6.57176383156506    2.26138612498266
H         1.17114693045921    8.00769958139965    2.23837115766353
H         0.63991939366403    6.53812973797071    1.42080837663615
H        -1.03327673909107    8.00091100478660    3.57140268692962
H        -1.44912642344313    6.58365759511783    4.54107185905386
H        -1.52635311285935    6.50044339595235    2.77885979423508

