59
CSD_code = EGEYAQ | q = 0 | S = 0 | Stoichiometry = C24H27NO6W | MND = 6
W         3.75114268989841    4.26159962694938    3.09068154341488
C         3.90604694657999    3.06565814197129    1.49926967088295
O         4.21285232946582    2.45328822414691    0.58048772036926
C         3.90779318178344    5.77748312575819    1.80044749533550
O         4.19160548543958    6.60302281740317    1.05983964602727
C         5.73739127070513    4.24557457076611    3.11551574902794
O         6.88201188064864    4.23017326232741    3.11341832197296
C         3.97072591874187    5.48658472130299    4.66138121565093
O         4.40845218037304    6.11631213499093    5.51142300739927
C         3.79261811175415    2.78508272546287    4.43560225991203
O         3.95896915484724    2.00196297660051    5.25526112263303
C         1.54340988847641    4.24577048268293    2.96697535757037
N         0.78739015702007    5.33056715940099    3.06745591200638
C        -0.66658727435645    5.30404758810966    2.83805838291140
C        -1.38939088759669    6.44109032953714    3.54969407676455
C        -0.95695522094878    5.33383051716600    1.33712954363575
C         1.37197385319110    6.58116090295219    3.44255565453003
C         1.56936259101374    6.79236282621553    4.86106662515796
C         1.26803738138359    5.89080127521154    5.81137198627341
C         1.46145325557842    6.04564184155863    7.23815346289430
C         1.03327181246324    5.02001716240521    8.08697324191840
C         1.20255308266767    5.10882061613584    9.45412764003862
C         1.80860357616729    6.22508180260608   10.00709205036513
C         2.24387926280493    7.24838219972822    9.17987004492826
C         2.07315832834649    7.16329198135539    7.81273139448766
C         1.64865136792627    7.47924297913906    2.48508105385948
C         2.20982634152623    8.84696787254184    2.69178286247077
C         1.09006579027626    9.87745958741250    2.90042677359701
C         1.65082452922126   11.28237283182242    3.07518466121690
O         0.76541643312117    3.19333663745527    2.67238983825356
C         1.28757331809979    1.88219884890777    2.56081164666870
C         0.11870384946264    0.91060086396021    2.64145325897910
H        -1.02741029764110    4.35187162842806    3.24437465651685
H        -1.17230372701885    6.44120558658827    4.61467016000960
H        -2.46106909034155    6.31225396097992    3.41754996441267
H        -1.10658677868890    7.40577165104804    3.13632132520324
H        -0.67283445375049    6.29386662690726    0.91330157584814
H        -2.01899961914646    5.18146257185382    1.16266867272995
H        -0.40624166676022    4.54751702437080    0.82798526923267
H         1.97289150210216    7.75355283173245    5.13678606779541
H         0.85138005690546    4.93486489566556    5.51458704387543
H         0.56421421251166    4.14405362663827    7.66067530043179
H         0.86478081255038    4.30507455673769   10.09197875638240
H         1.94522535711818    6.29574084915857   11.07588676782915
H         2.72334155741447    8.11741922436536    9.60632064958009
H         2.42885319618943    7.96650722074158    7.18672755305479
H         1.41788502426312    7.21871096468212    1.46092779819549
H         2.78911560293898    9.12875343234027    1.81083372383195
H         2.88086330327163    8.86564665085712    3.55129467480562
H         0.50942330961457    9.60019948408368    3.78346859053170
H         0.41799606515230    9.85753621517614    2.03936848689590
H         2.31194052047594   11.32536286157351    3.93781833142969
H         0.84568852551557   11.99810682169075    3.22357552889544
H         2.21733205853394   11.57977503428567    2.19573487266178
H         2.00666995550555    1.68849975218342    3.36540160880385
H         1.79908835211674    1.77536199945698    1.59679158524237
H        -0.38316180622943    1.00302228974102    3.60135650948576
H         0.48122812263277   -0.10664098650070    2.52946235975665
H        -0.59864068131248    1.12021459119244    1.85201894542395

