102
CSD_code = EGIBUS | q = 0 | S = 0 | Stoichiometry = C51H39F5NO2P2RhS | MND = 6
Rh        9.97241398381268    2.16999455446953    8.75291291098744
S         7.54372383645270    1.56531206834414    9.07429786163344
N         9.74146204174114   -0.18276886982470    6.79268042029908
O        11.55390802061822    3.25514215905058    9.06002163140435
O        10.51761149685287    3.68651382863550    9.83023657435871
P         9.85013322186148    3.39221295046249    6.79148915768110
P        10.37074858963066    1.24772623361427   10.82441518288827
F         7.97623789869436    4.50779653480770    9.01809825218816
F         7.00276406777366    6.34716259111006   10.76637756104759
F         5.38018969979097    5.55156088026605   12.82404732001671
F         4.74797873616410    2.91028743083400   13.09819480561602
F         5.75041176616712    1.07728795801843   11.38293645252992
C         9.90545652413769    0.64851029229439    7.60114358341087
C         9.43083061075817   -1.04307707115350    5.79218386998768
C         8.11464231091010   -1.50798045217865    5.67154184609413
C         7.82359578475489   -2.34730602417463    4.60715953427312
H         6.81505558078418   -2.71485245467038    4.49017600540890
C         8.80140237706722   -2.71629326430230    3.70007465698609
H         8.55260452752047   -3.36958293262176    2.87738274880430
C        10.09863060203870   -2.25385336172322    3.84381085578350
H        10.85835916729963   -2.54837773607726    3.13504090773323
C        10.43711948645574   -1.41235974331254    4.89037480565080
C         7.07296879078926   -1.11594990253989    6.66671497318522
H         7.12122983069789   -0.05144750663454    6.89041963903320
H         7.22778358630091   -1.64783377798047    7.60554068563428
H         6.07984333085099   -1.35559170375459    6.29773746246643
C        11.82965277257918   -0.89544425114602    5.07271282474241
H        12.21770816719492   -1.18544792145490    6.04909021846654
H        11.84542369723826    0.19396178650235    5.02731304016857
H        12.48937742475523   -1.28698351154359    4.30316659552114
C         9.59779634042411    5.19382566037188    6.79599180556459
C        10.45956993048232    5.94388916027752    7.59184605859613
H        11.21284693821546    5.44168465435931    8.18053535502742
C        10.33688107790108    7.31962591452393    7.63397802996470
H        10.99925745297782    7.89942697211983    8.25958223954123
C         9.36236044789433    7.95380614031572    6.88039975078004
H         9.26269812938683    9.02868126362634    6.91789366756521
C         8.51288271529137    7.20908291623097    6.07973055487102
H         7.75504658118752    7.70261641310079    5.48822685664265
C         8.62424480645007    5.83047098066418    6.03523829165806
H         7.95592758296114    5.25674644638022    5.40866829815551
C         8.59814393794765    2.72414187086462    5.65064896568953
C         7.25434553635527    2.87735574092944    5.98670732334017
H         6.98846378401087    3.46470851035336    6.85363070942773
C         6.27138158009912    2.27644564058538    5.22360936589640
H         5.23246601578006    2.40104593536271    5.49074434206955
C         6.61955323055520    1.50263153714168    4.12764070580192
H         5.85254160686038    1.02377161105919    3.53750451392489
C         7.95288658520104    1.33823402110695    3.79394352498808
H         8.22909770515091    0.72824084672689    2.94612800673545
C         8.93953566517071    1.94347164119193    4.55217581855750
H         9.97857319853714    1.80867051988452    4.28635931105361
C        11.38385856112866    3.30700291233724    5.80892478884490
C        11.46829888466775    4.04455296517740    4.63004997421388
H        10.63067582885502    4.65494692359379    4.32056064493301
C        12.61548744991750    3.99456704692034    3.86141175261790
H        12.67611691228455    4.56715279630773    2.94753108942507
C        13.68884481534421    3.21484573500234    4.26477243923389
H        14.58613834338558    3.18081391669861    3.66470011182630
C        13.61233104583582    2.48749962052959    5.44026334240572
H        14.45073368962512    1.88594038446097    5.75957335040928
C        12.46259614651539    2.53068662512992    6.21131762057630
H        12.40539712962600    1.98174713166256    7.14291137683861
C        10.29202072605969   -0.57139473239508   11.00462203841748
C         9.37843278172149   -1.29181177545814   10.24258088958692
H         8.72655717304711   -0.76468256115171    9.55940946870840
C         9.29081187293240   -2.66583713773372   10.37428544360812
H         8.57750186581754   -3.21982612317701    9.78145892657172
C        10.11426801514144   -3.33069129837019   11.26794703739724
H        10.04760893862379   -4.40380460704625   11.37029763664512
C        11.02091254578624   -2.61678092716105   12.03474381772615
H        11.65918204426656   -3.13253731357616   12.73736456437381
C        11.11107799500965   -1.24254671520841   11.90689565144250
H        11.81683064715779   -0.68800545113355   12.50960813423378
C         9.31695261528837    1.81553540679872   12.19615649012666
C         8.52583292257126    0.92654185830104   12.91738203848401
H         8.50807983651956   -0.12129004335115   12.65643882539012
C         7.75210287629432    1.38503427461765   13.96941604920848
H         7.13828074899952    0.68980456897709   14.52218079684698
C         7.75714530638234    2.72756553407196   14.30835665692359
H         7.15385685789770    3.07976705340742   15.13175784176661
C         8.52635244644417    3.62029839103957   13.57802605973534
H         8.52529735388102    4.67020922314215   13.83277187332900
C         9.29878167367485    3.17179019584087   12.52267054529477
H         9.88877038871193    3.86392364233880   11.93855843765225
C        12.07334489585406    1.57119324105774   11.37237445596978
C        12.40854073470972    2.18174650248670   12.57232031486256
H        11.63582956391006    2.49968949419971   13.25752606690594
C        13.74161312416282    2.38506086140705   12.88925591057416
H        14.00107432477014    2.86288121890654   13.82287932258035
C        14.73771738577476    1.98590746327051   12.01522559879795
H        15.77480807489372    2.15594030561697   12.26490308157649
C        14.40475757680998    1.37298877216621   10.81684142431875
H        15.18187339452981    1.06531110512499   10.13230793181241
C        13.07799445470630    1.16584068459702   10.49693014330753
H        12.80056008048122    0.69317537576270    9.56124486269679
C         6.92256900759733    2.74153144360360   10.17020688009442
C         7.20194490579436    4.10754388858412   10.04011387245369
C         6.70162782962379    5.05062423848732   10.91956033503981
C         5.86849761725879    4.64974205763079   11.95939742637425
C         5.54906829252409    3.30204663104572   12.09693258149702
C         6.06697351672567    2.36896601499047   11.21565819657035

