51
CSD_code = EGIBEB | q = 0 | S = 0 | Stoichiometry = C19H28Cl2SiZr | MND = 12
Zr        2.26713975456462    5.90651386431582    3.19769269004267
Si        5.56839178376385    5.84937186394173    3.61179432249587
Cl        0.38602469229760    7.25473452590689    2.84881695344133
Cl        1.07097813520214    3.89123265442264    3.18214697673187
C         4.11861339307135    6.11862804661989    4.79646019145486
C         3.24463739941889    5.09058146201854    5.25371667658198
C         2.02722575127187    5.67734368024162    5.67866222681554
C         2.12900458519803    7.07217456718111    5.45386133649363
C         3.39199851277218    7.33744869674631    4.88810780505430
C         0.88286916627501    4.96491725991008    6.35459401529211
C         0.98919664754019    5.14601851925775    7.87391232841998
C        -0.46659726697539    5.47959852409328    5.84574162754202
C         6.46096399164870    4.20840909204402    3.99984185173915
C         6.89239208402658    7.22794901883641    3.66764475055772
C         4.44066283934170    5.88355352521227    2.08454409132786
C         3.71145653512159    4.75712181451339    1.58521568732707
C         2.62090161649579    5.22791340016863    0.81028827723585
C         2.65154840774535    6.64978110055735    0.82993071196521
C         3.74192615912246    7.05474483708636    1.63848489273222
C         4.09223538970689    3.31264260047640    1.76034810764461
C         1.62804716368275    4.40933611259287    0.03426288509459
C         1.78223058967299    7.55397484166449    0.00510041588860
C         4.13328714688247    8.49551565229068    1.82472577374763
H         3.50911230008887    4.04544996250637    5.38211195421698
H         1.40423461488101    7.82034771720291    5.74987821594512
H         3.79804121465463    8.32648995221869    4.71433702536292
H         0.95592160454335    3.89353737813463    6.12527867133890
H         0.18665781402841    4.61135993782051    8.37660739125783
H         0.91977217575883    6.20021992535124    8.13286951739064
H         1.94152803887917    4.76572584427841    8.23635222256734
H        -1.27654194461358    4.89841129727038    6.28178943366228
H        -0.52699978294953    5.39162025329328    4.75858533229662
H        -0.61191326548748    6.52315235486230    6.11937938172896
H         7.15040711526568    3.93938739132933    3.20702120840508
H         5.77883027520379    3.37991381431815    4.15085553652368
H         7.04279485052200    4.32313715075007    4.90863346099304
H         6.53086720370011    8.13288937075298    4.14367183750067
H         7.24364402325479    7.48613840642488    2.67455148211252
H         7.75031202987458    6.88863771454552    4.23684556413285
H         5.17215655768403    3.21308427019505    1.83582268722422
H         3.75927326712567    2.72912722030163    0.90314491184375
H         3.63186094139327    2.88086574221685    2.65558134211598
H         1.66986119207013    3.36207758219577    0.32694335653762
H         1.82473077752753    4.48170309051332   -1.03776546151109
H         0.61230404264540    4.76969022026819    0.21797476692675
H         1.66211220189193    8.52639616380723    0.48124596396164
H         0.79334826664424    7.11983862734438   -0.13786125848275
H         2.23085698693725    7.70771187186378   -0.97957635087071
H         4.38598121535803    8.94237623569377    0.86077415747474
H         4.99792505146883    8.59102865530775    2.47417510265358
H         3.30248675379658    9.07137618913043    2.24647795105820

