55
CSD_code = EGICAZ | q = -1 | S = 0 | Stoichiometry = C27H15FeN6O6(1-) | MND = 6
C         4.05891615376305    3.35566727953173    0.50537712284821
C         3.10666638417262    4.33987750402320    0.20982170885570
C         5.34067419341033    3.26415645555839   -0.10161996860995
C         5.87582421706998    4.32878743635093   -0.97207736905558
C         6.72214801535897    3.97140716532587   -2.02091253058719
H         6.94322675855238    2.92542322219472   -2.17208757343136
C         7.25695126959364    4.93984996498883   -2.84767707520647
H         7.90555948584356    4.65518874422636   -3.66419731923952
C         6.96484810618852    6.27653419519469   -2.62736457920586
H         7.38445059294268    7.03546169073042   -3.27272596140060
C         6.14266323638786    6.63944063762008   -1.57278713953358
H         5.92713781675467    7.68235099111231   -1.39144988336450
C         5.59773058629522    5.67445546142326   -0.74565483139327
H         4.97642643630322    5.96189118413918    0.08721142652061
C         3.21714288773586   -0.63740958581217    2.47913555166151
C         2.50198615646032   -1.42238451047221    3.39298887090708
C         3.06010418815495   -0.69760520691262    1.06772951860337
C         1.96392979471998   -1.45421073613985    0.43263094551359
C         2.18835519639209   -2.04072969902887   -0.81214833601760
H         3.16407706955735   -1.93766943326498   -1.26283298445274
C         1.18091718500397   -2.74170965703938   -1.44557690644099
H         1.36413629549741   -3.20096089567708   -2.40680269638348
C        -0.06568347791888   -2.85210928621673   -0.85035149736448
H        -0.85539625302621   -3.39911288436464   -1.34602933459721
C        -0.30153231405420   -2.25162345020530    0.37586699786806
H        -1.27771246628220   -2.32418720664420    0.83274759558974
C         0.70474544681796   -1.55452516251807    1.01902713931489
H         0.51106225750993   -1.06930821827103    1.96206670044431
C         7.11982018921086    1.52598258993597    3.31240644432371
C         7.95895842599175    2.23074153850669    4.18529072375628
C         7.35075607261599    0.19592719205893    2.86832365591716
C         8.41870260060220   -0.64653014038140    3.44071753029407
C         9.05815684892232   -1.56832028549395    2.61295659810112
H         8.75996756616582   -1.62525924678683    1.57682064361404
C        10.05546256946641   -2.38206005861990    3.11366938447246
H        10.55365371530165   -3.08805418929918    2.46423054287543
C        10.41447766495017   -2.29523268769205    4.44936871975291
H        11.19421999071963   -2.93243962094269    4.84246601618737
C         9.76600488991120   -1.39773663385089    5.28225751324702
H        10.03502512228687   -1.34066233146159    6.32693099892199
C         8.77199740508310   -0.57439842987585    4.78577456293662
H         8.25463420654772    0.10761199628683    5.44114290598781
Fe        5.10211503881681    1.08086685214433    1.55479370049618
N         3.77730713587879    2.29373617731750    1.30047091445843
N         2.30754492502469    5.13025377154699   -0.03793553895224
N         4.25015155838993    0.15419468756835    2.85990185771197
N         1.93843629133530   -2.07748125720681    4.15318082208298
N         6.07535551658341    2.11640637171238    2.68042683056587
N         8.65087605610556    2.82733081350978    4.88530758272650
O         2.63169023630284    2.09332247259617    1.73933551560480
O         6.00157922284482    2.20851431922150    0.07237910891670
O         4.67241398273232    0.15821967662296    4.02922971961045
O         3.92468707966429   -0.12925441387021    0.35295140950124
O         5.86177073378687    3.33738159018234    2.77418530849708
O         6.65637973554955   -0.23670675357428    1.91340893654856

