45
CSD_code = EGICIH | q = 0 | S = 0 | Stoichiometry = C19H21N2O2Rh | MND = 4
Rh        1.94115295517215    2.63751522017809    2.62945285317908
N         3.30871358830628    1.61032798776464    1.85435979997476
N         1.05895576711760    2.21856415198130    0.95572583951923
O         2.96561268307805    2.97332429085211    4.30718091336360
O         0.42356378414194    3.71765397698059    3.34557820857406
C         3.07844823288127    1.12028171740364    0.66779850524336
H         3.80802080083398    0.51677688067060    0.13703837996578
C         1.80725129813693    1.44015176499428    0.11910589652193
C         1.32901154887634    1.03335819310153   -1.13188855333767
H         1.95484170893403    0.41813066285412   -1.75993470150473
C         0.07293390685000    1.42623369540024   -1.53317926582996
H        -0.32125347614715    1.12741164956725   -2.49245629398789
C        -0.68449684506821    2.22223648297776   -0.67133786662783
H        -1.67289295892580    2.54920333872261   -0.95233395396392
C        -0.15678490065126    2.58929136260987    0.54863910775915
H        -0.71903432379861    3.20480315233609    1.23786738716531
C         4.53061638801572    1.37947813164843    2.50491113289645
C         4.66395521775513    0.26925370303613    3.34318216512296
C         5.86643742974195    0.07734366776965    4.00533297322675
H         5.98127160874032   -0.77648065193718    4.65756451257204
C         6.91082166186864    0.97126184058139    3.84695146826379
H         7.84306472662843    0.80893201304876    4.36766172021872
C         6.75466968472942    2.08532277175921    3.04105951908037
H         7.56200310374839    2.79656355006866    2.94131523660012
C         5.56583807054788    2.30806891498828    2.36424777841004
C         3.49447694317802   -0.64765047698470    3.53106155121461
H         3.31467459299587   -1.24034696488601    2.63359483292119
H         2.59529912052045   -0.05088264929317    3.72191044421072
H         3.66124326542885   -1.32289708555843    4.36614164727949
C         5.34236489621358    3.52741981909040    1.52360711677031
H         6.13113486300953    4.25804384336544    1.68204550935672
H         4.37581184132028    3.97464965029044    1.78626573612027
H         5.31147913089771    3.27074694321881    0.46421818256928
C         2.59420102771039    3.64791552954882    5.30548707935234
C         1.36873849460257    4.30806422477902    5.44063440403498
H         1.18299916119386    4.85241146429592    6.35392730373869
C         0.37100248838797    4.30326009507284    4.46586642826452
C         3.57361177948915    3.74464850915473    6.45672114322305
H         3.13063778483971    3.33239625585328    7.36071767856637
H         3.82816729878512    4.78524209623414    6.64552610994951
H         4.47540377402866    3.18999131198770    6.20975444065149
C        -0.90191850450296    5.06740591661530    4.77236357887949
H        -1.57572899672404    5.01888691433389    3.92074695014493
H        -0.67192239769552    6.10764551503850    4.99115205276164
H        -1.39359822519514    4.63684061847932    5.64221504758754

