49
CSD_code = EGIFOP | q = 0 | S = 0 | Stoichiometry = C21H24MoN2O | MND = 9
Mo        5.57940515507248    7.18425115312373    7.60582584684656
O         3.50836200361146    5.24928141072056    6.89677379788509
N         5.96588979527993    6.11272508206138    9.40459389889152
N         4.27914828288509    6.08630019009294    7.25566581243514
C         7.92415614949735    7.46311752522611    7.46836418429525
C         6.73101480936697    6.79005895691088    5.60474908598762
C         6.25103272336762    4.01845937145999   10.52487327063655
H         6.11167043851121    2.94926553273665   10.50423946893213
C         7.49858863190051    6.31426043757666    6.70011246567735
C         6.56582537290429    8.19141010313799    5.75880498148862
C         7.34778788828792    8.60612521147707    6.89837718134199
C         3.72525176279490   10.08641219157839    7.33914814332237
H         3.59688375512312   10.45564498444757    6.32907436229905
C         3.19413665823814   10.79907896720739    8.41850802270820
H         2.66752796001983   11.72447405297886    8.23092440358605
C         6.02609525103080    9.12071325320624    4.71087678778072
H         6.76520421050347    9.25113660292859    3.91578429152399
H         5.80612783519792   10.09751394552805    5.13500888983351
H         5.11415940033550    8.72512507683760    4.26675232960170
C         4.00051357952794    9.15165992159120   10.00164661242944
H         4.08702267320025    8.80768047895421   11.02728094689326
C         6.25466891855594    5.97463048512483    4.44151049159557
H         7.04127984134627    5.90992060235573    3.68571777691482
H         5.37733889226807    6.42712618501116    3.98408322752784
H         5.99209343715521    4.96334856647333    4.74723561015630
C         6.52605731400498    6.70734913447488   10.46118221929524
H         6.59874016405064    7.78715631688402   10.41319530586920
C         6.97424118088902    6.02183088580852   11.57317714068977
H         7.41799620454678    6.56279830547685   12.39417681225632
C         3.32801628843851   10.34284568719539    9.71683374314523
H         2.90422385138588   10.91766691108946   10.52865538597714
C         8.10434563161123    4.94257008011535    6.80709346574232
H         7.44271012233880    4.19121690598851    6.37818710292440
H         8.30166911517661    4.66954244566225    7.84472326863896
H         9.05298367067342    4.90512028391115    6.26495116895573
C         5.83649949273833    4.78375201071436    9.45050558377988
H         5.36247424109321    4.31561685983599    8.59771239107133
C         6.83564535925213    4.64175814073678   11.61718116995185
H         7.16450288198184    4.07513485718129   12.47413124565804
C         4.51715447212483    8.46736708517244    8.92572602188938
C         8.99630045235825    7.42660391152761    8.52022956438572
H         9.97764476016012    7.44963296687859    8.03877873360062
H         8.94506109494289    6.51771106720701    9.12062329025867
H         8.93359204924380    8.28292169371606    9.19073090877748
C         4.37755000124884    8.92229445224443    7.65376178059725
C         7.60784979029857   10.03790822383586    7.26604202065373
H         8.11928863188902   10.11333635917476    8.22416917685650
H         6.67603559421601   10.60099365085353    7.33432990429994
H         8.23603220935158   10.51015147556335    6.50727070413086

