87
CSD_code = EGIKEL | q = 0 | S = 0 | Stoichiometry = C46H38N2Pt | MND = 4
Pt        0.27291307038965    4.04309116448498    5.67321133943310
N         1.24912083207212    5.19982333808328    4.33288453729837
N         1.26851071644123    5.22643868660375    6.97905366372138
C         2.14274153506381    5.96425345566970    6.37441193238599
C         3.12658399193965    6.94528329921299    6.80521838601431
C         3.56313662709300    7.43196451591531    8.01436376484490
H         3.16056095437435    7.07292823403062    8.94998795192086
C         4.55670139805132    8.42791453538819    8.01241148270757
H         4.89999508170852    8.80391924695580    8.96530530593133
C         5.10006799373273    8.93727209626135    6.85754744828106
H         5.86097148590871    9.70243554048117    6.90603973297665
C         4.66343296484188    8.47173415398199    5.59617183227126
C         5.09087835058175    8.89972271525785    4.31843823536775
H         5.85059994231081    9.66376921539110    4.24185142269317
C         4.54022914031897    8.35552057711864    3.18306914177566
H         4.87693330695008    8.70279071683288    2.21701184100939
C         3.54701046089714    7.35984324786175    3.21774364951753
H         3.13897516671839    6.97182476523286    2.29616850235049
C         3.11809755447660    6.91055853951102    4.44393759637772
C         2.13504277089981    5.94552126636737    4.91058405163861
C         3.68350204033105    7.47698955851313    5.61446957573041
C         1.09167863337722    5.11768589021414    2.94512684084788
C         2.00915569758469    4.40938681835818    2.16440444332145
C         3.18524161078276    3.74184275396730    2.81196323350867
H         2.84601944390877    3.15072826265348    3.66643656595865
H         3.91314545550876    4.47132465375677    3.17060812888454
H         3.68231183666126    3.07955955865637    2.10811477667169
C         1.75680458313359    4.27439099094512    0.80964890543627
H         2.45232962270823    3.71379488099765    0.20128496250016
C         0.62375840807718    4.81759757758885    0.22067261541019
C         0.35396238098717    4.62369568634057   -1.23920110636561
H        -0.19631347026204    5.46756177635774   -1.64923414019016
H        -0.24924496383408    3.72601826897799   -1.37949167047752
H         1.28059958458149    4.49945557817844   -1.79484886984920
C        -0.28358857828926    5.49591977872019    1.02254122651180
H        -1.18383504385630    5.89888068164886    0.58142844659395
C        -0.07514423481118    5.64436892091843    2.38189524929162
C        -1.06742310859938    6.33066516079475    3.26831992123337
H        -0.66451571622692    7.26715993922019    3.65766547193234
H        -1.30443214950621    5.67942608400330    4.12234594909863
H        -1.98547196069323    6.54452585804719    2.72822346437991
C         1.11716203658171    5.17775274375782    8.36857983926860
C        -0.06107684389781    5.69341124041995    8.91920994771570
C        -1.06786159238366    6.33690158696168    8.01710386853154
H        -1.29640502758436    5.65783731204850    7.18166733718291
H        -0.68279609438169    7.26917231367801    7.60055188112695
H        -1.98818725273339    6.54931789777533    8.55390917857591
C        -0.26642729451474    5.57515955987938   10.28189324035265
H        -1.17544655577281    5.96931182194829   10.71285957717285
C         0.65561633806446    4.93792372787612   11.10056260184261
C         0.38988269345489    4.77477614874179   12.56490330392395
H         1.31906433428256    4.69045244211469   13.12378194964950
H        -0.18844097859540    3.86471491711748   12.72842131250075
H        -0.18369822122836    5.61357528872118   12.95274739942469
C         1.80074833896124    4.40574746861119   10.52521084717183
H         2.50859516960268    3.87688291536867   11.14760871776040
C         2.05017716977598    4.51074811501219    9.16717703212724
C         3.24109127787859    3.85134493675098    8.53849301086567
H         3.95716902251339    4.58602149048748    8.16693098045198
H         2.91726214471940    3.23544820111619    7.69606630906385
H         3.74719015790033    3.21416585650630    9.25895125255051
C        -0.46914977107782    2.95416149089395    7.11870134008429
C        -0.70505845649046    2.55096161247544    8.24044760627338
C        -0.97410737805949    2.13632371973263    9.56463017599760
C        -0.01699591921886    1.41737845320341   10.28317031444351
H         0.90676955249532    1.13914792200868    9.79685893832121
C        -0.25209955017569    1.06936049694636   11.59822542523773
H         0.49309592071379    0.51221808084285   12.14902864519429
C        -1.43787709380421    1.43422247662604   12.21710762398457
H        -1.61790144412798    1.16181637307886   13.24750111777201
C        -2.39214161519023    2.14888126181746   11.50952485475124
H        -3.31712322530448    2.43421450167240   11.99125654631409
C        -2.16633741335761    2.49949546534960   10.19324163049395
H        -2.90476172749011    3.05896771673523    9.63753738304146
C        -0.51017325102828    2.94478027442587    4.25671524174140
C        -0.78194521623178    2.53352938224455    3.14612662301193
C        -1.09360056219145    2.11083986275641    1.83388893630105
C        -0.17717009251622    1.35346217770689    1.10216022486093
H         0.74895041190752    1.05187352160247    1.56975318686603
C        -0.45470384868611    0.99789902655532   -0.20266382490407
H         0.25924344814893    0.41101714406271   -0.76402306422732
C        -1.64273237122209    1.39323594178231   -0.79801318018359
H        -1.85592323767180    1.11474935055375   -1.82042574618255
C        -2.55671722721787    2.14627356546876   -0.07716061683176
H        -3.48344208426435    2.45538598745909   -0.54045476037355
C        -2.28845771866679    2.50460087987420    1.22895407014157
H        -2.99510236842641    3.09384934014386    1.79509591248518

