99
CSD_code = EGIQER | q = 0 | S = 0 | Stoichiometry = C32H54N4NiO8 | MND = 6
Ni       -1.42856990332392    9.72801551765980    4.60701642960567
O        -0.50514505782870    8.50230699882630    6.22145538282023
O        -0.40804792424276    6.47280266722262    5.31770195561068
O         0.44455911105551    8.55258613781069    9.19142388341194
O         2.11700036105188    8.37173518621463    7.73283421087947
H         2.43198325437905    9.15579419466999    8.20896302977126
N        -1.19165734450202   11.27314882226823    5.68746646975718
H        -1.65756478002677   12.01101321625094    5.10928018692021
N         0.65411521759769   10.07306835728413    3.98836604683933
H         1.08870083909781    9.42842636363793    4.65249901287709
C         0.23031198427111   11.63516148294042    5.80383404050656
H         0.68063573922471   10.95524855587468    6.53809310049740
C         0.43296739324253   13.09264545718302    6.24189503398367
H        -0.03458606911002   13.27491215172264    7.20974707944470
H        -0.04429931042490   13.74623319574694    5.50852721413238
C         1.91828506720708   13.42627070060883    6.35116663547247
H         2.03654768713524   14.46799849076785    6.65441585466059
H         2.37259759419088   12.80111733231312    7.12353263123406
C         2.62759080302547   13.18773086595084    5.02440315545121
H         3.69395462919949   13.39775273117053    5.12613446665285
H         2.22301611673437   13.86611625089512    4.27045159954427
C         2.42104112312874   11.74733376911022    4.56887875297747
H         2.87223398304700   11.06168468549344    5.29119940082633
H         2.91407683678253   11.59503214470985    3.60755714466588
C         0.92463291800997   11.43627168902912    4.44495344558662
H         0.46553659826375   12.12768975903084    3.73201272077665
C         1.09598273974109    9.69930440554206    2.64391064931635
H         2.19672360646576    9.61257469097055    2.61178534902520
C         0.66101331988667   10.72388072791187    1.59870911108779
H         1.27887805001462   11.61721023939364    1.64280067462526
H        -0.37548336204587   11.00395449790471    1.75891352328850
H         0.75576919409894   10.29830216783671    0.60342531739099
C         0.52916494673048    8.30559392419963    2.33061562262991
H         0.95354972631164    7.97554640826754    1.38072934820598
H         0.85549774841720    7.60335668121183    3.10216575603419
C        -1.86155567033326   11.21899082810763    6.98960823156943
H        -1.46766465270867   10.36273135287029    7.54188005336554
H        -1.62583689388741   12.12581638722912    7.55811245986081
C        -0.22634059152555    7.28201948436498    6.23197890975811
C         0.38779322339599    6.76941590590454    7.56656714096351
C         0.95036737356976    7.96442998859491    8.27026681511893
C         1.32099493001182    5.55117427895903    7.44662317078388
H         1.24625462986448    5.10764159520747    6.45494277123282
H         2.36564277719543    5.73345158333589    7.68915041172768
C         0.48375985054910    4.81684329690153    8.50242843872192
H         0.14241429230565    3.82314897741953    8.22101606079797
H         0.97262811625533    4.76300451219938    9.47309450386271
C        -0.57463056905190    5.92675879642263    8.42798913140464
H        -0.85440878793289    6.39634282476825    9.36893747489368
H        -1.47168752630606    5.63351650816570    7.88601666966588
O        -2.35198661502667   10.95384115205583    2.99272461338554
O        -2.44906505539309   12.98338227797028    3.89646251063494
O        -3.30196358568938   10.90352497485655    0.02282415031060
O        -4.97432863942195   11.08430451658804    1.48147824933268
H        -5.28937869654323   10.30032074411626    1.00525674506744
N        -1.66553489288744    8.18293863336354    3.52647897750554
H        -1.19962224720118    7.44507070482259    4.10464516650373
N        -3.51131774872248    9.38304094118251    5.22555252781795
H        -3.94589167952730   10.02767568631464    4.56140472153392
C        -3.08751114308892    7.82094357745378    3.41010150721829
H        -3.53783741050446    8.50086285573296    2.67584562549092
C        -3.29016218314462    6.36346390999279    2.97202934369945
H        -2.82260654153628    6.18120615916370    2.00417584112369
H        -2.81288858926472    5.70987465103558    3.70539413957875
C        -4.77547968340311    6.02983840010669    2.86276046743501
H        -4.89374131027981    4.98811408027726    2.55950270758471
H        -5.22980046355325    6.65499775068263    2.09040244752590
C        -5.48478009147028    6.26836603189208    4.18952969736834
H        -6.55114307889226    6.05833803213924    4.08780352124104
H        -5.08019874722971    5.58998133066604    4.94347825266469
C        -5.27823865833116    7.70876245543648    4.64505902853544
H        -5.72944106111164    8.39440857047253    3.92274129761536
H        -5.77127181179701    7.86105765870187    5.60638272615644
C        -3.78183228862639    8.01983337003889    4.76897968312603
H        -3.32273314753391    7.32842041189558    5.48192538917630
C        -3.95321147954402    9.75682170247689    6.56999399344058
H        -5.05395498974544    9.84355811099197    6.60209962490831
C        -3.51825356062278    8.73225976313237    7.61521286520017
H        -4.13614578093812    7.83894841970153    7.57115340402675
H        -2.48176636681273    8.45215168987861    7.45499625276372
H        -3.61298154928987    9.15786308831903    8.61048878663205
C        -3.38638888139400   11.15053131593913    6.88327482023521
H        -3.81079242176129   11.48059882484031    7.83314378622882
H        -3.71270532291402   11.85275219287915    6.11170480664963
C        -0.99566847309970    8.23713254217565    2.22431683066296
H        -1.38957479757025    9.09339822868882    1.67206220014277
H        -1.23140001433481    7.33031747197932    1.65580176872769
C        -2.63085012984501   12.17412078657214    2.98222849998546
C        -3.24507453061779   12.68675146820639    1.64774475951233
C        -3.80766695199455   11.49158867672426    0.94408670509995
C        -4.17830028720593   13.90503512517513    1.76770144668548
H        -4.10318459720498   14.34888255582699    2.75936766145089
H        -5.22303205370221   13.72210921753657    1.52578336424707
C        -3.34179634335832   14.63937433022834    0.71062100144345
H        -3.00074064276038   15.63397548643310    0.99071903315550
H        -3.83124948510118   14.69127036149223   -0.26028907665075
C        -2.28285980623413   13.52945620612999    0.78609197711621
H        -2.00300163056233   13.05928775935575   -0.15456762126919
H        -1.38578787141484   13.82303901027719    1.32804729173629

