78
CSD_code = EGISES | q = 0 | S = 0 | Stoichiometry = C21H42B11N3Zr | MND = 8
Zr       -1.34257137912457    2.50800501106706    2.21629741231612
N         1.53647942055488   -1.00159681111117    3.84622999896688
N        -3.35004732085366    2.46755879263112    2.01478935160533
N        -0.91352075369984    4.44869430959801    1.82317203339350
B         0.70101109997399    0.10699173889463    3.70329321255897
B         0.78164077551990    2.65701448665082    4.87160181055418
H         1.60593080938765    2.92677411735077    4.06660825023645
B        -0.55513528528898    3.71472620537166    5.31193238663437
H        -0.63228534391831    4.76869682684188    4.78831358867719
B        -1.98684902218450    2.72431801713913    5.50072455804928
H        -3.02417185107553    3.11160005570351    5.07771973105559
B        -1.52192144607540    1.04548488155276    5.19736486409150
H        -2.18457218638710    0.26971429051826    4.59707588993643
B         1.06926456113277    1.57544569339299    6.23993253968661
H         2.15389946103898    1.14646273363371    6.39586601571575
B         0.63026418400949    3.26138376056671    6.53973978398985
H         1.40560174806997    4.02764270803376    6.98451634575647
B        -1.11625872562671    3.29497376079857    6.94043663315281
H        -1.57441475902779    4.09929043911290    7.66758237070129
B        -1.73693993387291    1.61892580587888    6.86237184704174
H        -2.62075578084553    1.22796353369588    7.53483761576050
B        -0.36779214701766    0.57266730947567    6.44016243007566
H        -0.30215704622818   -0.56506491432293    6.73649203172386
B        -0.10470391483873    1.95545158045144    7.51694182751896
H         0.16057952883660    1.80011160757761    8.65372549016630
C        -0.79435462817727    2.31482084128512    4.32717775716972
C         0.15900767159940    1.06004820763207    4.86752348606348
C         2.01348841326324   -1.49703410255126    5.14073646137896
H         1.58676236248050   -0.85071884236423    5.90047048126785
C         3.53571914704645   -1.39221002201236    5.27905650695476
H         3.85887442869611   -0.38227980638441    5.03849746611675
H         4.06618819683640   -2.08893012922520    4.63501288628257
H         3.81529786566049   -1.60530742110074    6.30745917639349
C         1.51360108010714   -2.91405372941722    5.43813523065454
H         0.43220585827790   -2.95353765742331    5.33072601485486
H         1.76531597079943   -3.17300348311419    6.46325021214243
H         1.95547234301968   -3.66098561105501    4.78362224958143
C         2.05089286581699   -1.80230735473950    2.72196364450140
H         2.69816208461331   -2.56465187876355    3.15969655034970
C         0.95238249797730   -2.54511346187719    1.96119215829031
H         0.28829659215526   -3.05564173761567    2.65347189713337
H         1.40641084845466   -3.28786409470837    1.30893850952706
H         0.36671418970290   -1.86748465476848    1.35076441112203
C         2.92124591161087   -0.99003609433082    1.76153676624876
H         3.60698167307841   -0.35475673273370    2.31644390003354
H         2.31260418610482   -0.37099956352757    1.11183423057293
H         3.50348658433385   -1.66798849198239    1.14137530590852
C         0.21635516012880    0.57660634895231    2.26473721227292
C         0.84695757791823    1.54332261963563    1.43898591542990
H         1.82608895876554    1.97156590881625    1.63648410022103
C         0.10112684949048    1.76597834365309    0.25939883426789
H         0.41491300819733    2.35878144711812   -0.59323721826002
C        -2.04750856353214    0.61390545715567   -0.62302664973333
H        -2.07282656876865    1.12290879429477   -1.57996217917654
C        -2.98090561206172   -0.34359346276952   -0.31368171053426
H        -3.76062539472639   -0.58437500890755   -1.02245063094385
C        -2.94404424858141   -1.03066975684567    0.91318386877648
H        -3.69983355323933   -1.77628138244214    1.11453241373483
C        -1.96540967672696   -0.78258477747084    1.84351872776092
H        -1.92794079921856   -1.35411933705388    2.76328734205401
C        -0.96478904179448    0.17152698628685    1.55937729434464
C        -1.02460648130945    0.90130298109042    0.30173801618398
C        -4.40299735799054    1.69499788796963    2.63313668737354
H        -5.28213641942371    2.32618376163070    2.85789891547010
H        -4.05361378733346    1.25772099455667    3.57197243727387
H        -4.75375505237003    0.87928109925435    1.97211222369001
C        -3.81775163126409    3.02771259092255    0.75978917629011
H        -4.64239110339438    3.74866003139099    0.92207036254924
H        -4.21619605288993    2.24302459353796    0.08669325458397
H        -2.99692668322527    3.55279281738885    0.24575863170490
C         0.39679006199780    5.04419960628456    1.66371242090872
H         0.36980387361570    5.86277388761991    0.92170687712811
H         1.12217805702061    4.30245735323654    1.31370234292171
H         0.77382085541002    5.48180359492006    2.60932674905876
C        -1.86838582924419    5.47563681890446    2.20376945959743
H        -1.51082772893851    6.07006282427442    3.06402996115412
H        -2.82462478311476    5.01737704639407    2.47839279222599
H        -2.03806886930119    6.18853981041393    1.37502904969968

