58
CSD_code = EGISIW | q = 0 | S = 0 | Stoichiometry = C22H31ClN2ORu | MND = 9
Ru       -0.32415881964101    2.10045245629297    5.99289944116581
Cl        0.06676796403276    1.95053149225955    8.30455982428305
O        -2.80831492843701    0.17261852382657    7.28696088642058
N         1.75603504734192    2.06691942032583    5.83993272384469
N         0.70638793216191    3.91623402268829    6.15846107456369
C        -2.26807922129582    0.86073375938560    6.25975605101019
C        -1.37878738506791    0.13443212404876    5.42781479155589
C        -0.83254776179479    0.73780977105553    4.27658676816611
C        -1.18790066957466    2.05162562558016    3.91019407729015
C        -2.05805267847760    2.77530083242701    4.75225913037369
C        -2.60509326173145    2.19725502860983    5.91918171310877
C        -3.34225663451092    0.89895182006236    8.38081034094986
C         2.77558127195786    1.03252359866700    5.90162250673066
C         2.05481407455211   -0.31065470737950    5.73785892435980
C         3.49430402735023    1.01620558141838    7.26023787926086
C         3.78532891780464    1.20612780030505    4.75756307273944
C         0.38686377654040    5.24543855635015    6.65489542328317
C        -1.13987915872621    5.32336930781208    6.76877428746514
C         0.97237908308502    5.49419073819137    8.05381572546036
C         0.87235478997511    6.31656768740452    5.66704894838276
C         1.90205175150686    3.34900023256614    6.12840749655389
C         3.20067917847637    4.05851954559031    6.28343822520636
C         3.79262546223211    4.61238574271683    5.15223158423216
C         5.00076638739766    5.28085176081068    5.25036802315529
C         5.62941074670948    5.40181147978239    6.47805061338993
C         5.04536073781430    4.85267109843821    7.60731064458092
C         3.83669496704143    4.18408620077121    7.51432474655853
H        -1.20259809143142   -0.90806766802044    5.65828712128384
H        -0.22142539773311    0.14509728804913    3.60619983214231
H        -0.85237680787442    2.47375158319882    2.97105250056427
H        -2.40531162161873    3.75335117469800    4.44002083333935
H        -3.34870851428905    2.73923226512562    6.48889040308024
H        -3.53277934434524    0.15828654730873    9.15458448198421
H        -2.61292615680987    1.62764378771617    8.74687191018263
H        -4.28068684426536    1.39589523522882    8.11544793236608
H         1.26723935242231   -0.38644871125334    6.48633357894627
H         1.62411000191123   -0.39315923000854    4.74489314020908
H         2.75150370800302   -1.13274807554193    5.87984463614812
H         2.76221897548026    1.14144631480391    8.05565706491277
H         4.00087880025816    0.06445794711890    7.39978025181622
H         4.23384454644659    1.80791166137624    7.32562625573018
H         4.38638428250874    2.09963229066920    4.90194420282224
H         4.44719774353952    0.34446080577551    4.72075001916342
H         3.26187754427255    1.28840147942881    3.80743454789173
H        -1.49221968879576    4.49532949563642    7.38171593360203
H        -1.43628497715161    6.25753047477626    7.23867871623665
H        -1.59696161938514    5.27334369030913    5.78572156934309
H         0.81276233368819    4.61217930327508    8.67086605381007
H         2.03453155316551    5.71106377457010    8.00484885013810
H         0.47355299006534    6.34122422831007    8.51826777882473
H         0.49572462598217    7.29042690852994    5.96994538719186
H         1.95765819949446    6.35704737497958    5.64073896123720
H         0.50754551765264    6.09390073799649    4.66664158516538
H         3.29976628732279    4.51488952350554    4.19571868663391
H         5.45124064212325    5.70757881390729    4.36612339561394
H         6.57219051754327    5.92300522285938    6.55444233899982
H         5.53205580059431    4.94494316077032    8.56706997099006
H         3.38006004449849    3.75903309489245    8.39513713554200

