73
CSD_code = EGISOC | q = 1 | S = 0 | Stoichiometry = C29H37N6Ru(1+) | MND = 6
Ru        5.22532062550780    4.25683932668315   16.63890502210956
N         6.85616044980867    2.98601429898531   16.10369838180791
N         6.21361670316014    4.60847128689731   14.80230895984113
N         4.48297361056404    3.79008785469930   18.46554064470347
N         3.45533125045314    5.37268370360129   16.71498572206169
N         6.41324843197391    5.49420700326426   17.45178828671719
N         4.14753042658100    2.96102731310298   15.75627217226344
C         7.39563515642231    1.67956379863050   16.46480099646402
C         7.01637332400387    0.59795732689564   15.43939370844847
C         8.92244879580196    1.72136527346965   16.64103920738441
C         6.78048043372459    1.27259133941266   17.80880369233504
C         6.11674888046250    5.61581208403135   13.76064233011111
C         7.19791713306563    5.61809714685819   12.67198041861696
C         4.75539258642339    5.41170479754926   13.06987293506074
C         6.20185398878728    6.98825805409647   14.45893058341332
C         7.03579811192578    3.58914048697064   14.93289272853510
C         8.02926318094747    3.16884568277016   13.90748906075390
C         9.36719900832487    3.52686483085277   14.02919341508833
C        10.28407275934006    3.14157537162333   13.06628677784005
C         9.87463522318919    2.39469379725884   11.97487831143701
C         8.54176485191406    2.04290851264375   11.84095245262271
C         7.62212830955597    2.43204581533518   12.79868432738157
C         5.14985612778766    3.39603246588316   19.54982302005000
C         4.52678650333750    2.98427312577269   20.71063723201736
C         3.13661516881131    2.97475873567966   20.75906362740255
C         2.43881276973698    3.47934910938037   19.67936164266651
C         3.13860486362261    3.91638887477601   18.55341867492640
C         2.54794290086268    4.71798525085110   17.48723462002822
C         1.17635458965934    4.92620247507950   17.34268138891698
C         0.71795373476285    5.86305645725387   16.43699867506085
C         1.65561874488546    6.59864856886760   15.72420496108580
C         2.99873800222754    6.31435564978374   15.89158451277823
C         7.25933743141390    6.16308924301186   17.86220284038338
C         8.28727238415402    7.01500396294562   18.38019576137713
C         3.57177276104620    2.17802527502750   15.13421412844883
C         2.84753972431897    1.20869306043701   14.36821076038961
H         9.68423182538298    4.11742346596313   14.87682252029529
H        11.32055710988232    3.42530653265733   13.16918536590360
H        10.59083984192766    2.09174676475222   11.22690888729552
H         8.21710954256850    1.46731613798959   10.98707982829403
H         6.57845127827353    2.16947496698480   12.68998053170167
H         6.22778072370076    3.41472767113252   19.47427839953170
H         5.11398562487729    2.66626135991326   21.55625154111241
H         2.61563384652627    2.61913656082230   21.63333164690393
H         1.36457828485033    3.55421643635997   19.71509379986215
H         0.47919569912786    4.35182734794112   17.93032855679827
H        -0.33876859843584    6.03053233386237   16.30334640037807
H         1.35304970272388    7.37303885336702   15.03871162515122
H         3.73558786725373    6.87357030755131   15.33729518006588
H         7.31629354324390   -0.37807483510666   15.81224117756089
H         5.93863805382597    0.59567515535897   15.28583470652478
H         7.51005801623458    0.75946968564251   14.48712579520143
H         9.25095222039289    0.83360426307851   17.17547995405217
H         9.43255164251191    1.75033434508880   15.68365089586220
H         9.20608587274128    2.59903766018540   17.21832827934201
H         7.22525112245698    1.84900991578058   18.61312697089672
H         5.70300785658148    1.42976572289110   17.79356171857015
H         6.97286204476967    0.22118646704076   18.00477646708094
H         8.19392948103454    5.67903961040751   13.10048881403379
H         7.14360660726696    4.74099033011102   12.03581900581749
H         7.04091285437467    6.49622095063966   12.04895785490864
H         3.97318752900767    5.23635362187235   13.80601490954045
H         4.49176631760846    6.27435708705437   12.46429435751055
H         4.80611332211982    4.53966996214798   12.42118971025349
H         5.70540078895300    6.96070126924724   15.42686128047083
H         7.24574778665601    7.24010132075644   14.63392578127827
H         5.76108271353384    7.76752755254982   13.84269197195940
H         8.06516176822721    7.27971602278743   19.41419789041712
H         9.24862364776462    6.50221859746283   18.34297837250214
H         8.34764715421149    7.92692379139586   17.78550873219629
H         2.33033015877528    0.51566799846020   15.03238377819905
H         2.11613008067440    1.70859929158033   13.73261144435666
H         3.53772771972509    0.64630811390473   13.73866386764973

