102
CSD_code = EGITUJ | q = 0 | S = 0 | Stoichiometry = C41H52N4OP2RuS | MND = 6
Ru       13.02451463789936    3.42224194090461    6.64570230864019
S        13.29624748909340    5.45274422266848    5.42107234736684
P        11.49438932278755    4.53910782361078    7.91072534951826
P        11.61142410052148    2.42443540294976    5.13953494121192
O        14.59692658808458    2.36113552713283    5.72971761142242
N        14.57996591842244    4.22605990953366    7.83050480398347
N        16.08229591244587    4.42086021247335    4.51249031727306
N        13.05731752187498    1.57489006241445    7.77023973935032
N        14.07728904477577    0.71427473159347    7.25237026528894
C        10.54684881441844    3.62805572078657    9.19996101262341
H        11.23431793029968    3.19502505116514    9.92405899762249
H         9.98218299053746    2.82359626547991    8.73124966088631
H         9.86169866126296    4.30272218868491    9.71219538671568
C        12.12549946396631    5.95764823854765    8.88704396630934
H        12.55321147132774    6.68537867648491    8.19696395597828
H        12.91415449240851    5.62303814816076    9.55738512587208
H        11.31997130504378    6.41803152327846    9.45925636393008
C        10.10984804446378    5.39275535030458    7.05305532858650
H         9.50412608184940    5.95115016906711    7.76592364902801
H         9.48878720575357    4.65991993339722    6.54148071876574
H        10.53240156266748    6.07567781571870    6.31674762863364
C        10.10392572235979    1.53326609452047    5.71877600644528
H         9.54819289703978    1.14311893531929    4.86718174211616
H         9.46945838457664    2.21235357443882    6.28484574421350
H        10.39392023578781    0.70317988830731    6.36205017149370
C        10.88961493949535    3.45021779510639    3.80063702767051
H        11.70316691012832    3.82641906371414    3.18142278633688
H        10.35679975875365    4.29707121668342    4.22737564028662
H        10.21108365109954    2.85580699543104    3.18946337702254
C        12.35362663431921    1.09666838365434    4.11378984677515
H        12.72562725587160    0.29872010815436    4.75671133094956
H        13.19421524895264    1.51558453516171    3.56184945842786
H        11.61725272403527    0.69691957226849    3.41631891367525
C        20.32029734419045    2.36740233771301    5.89271968718431
H        21.21049823982928    2.16786556586306    5.29847930973196
H        19.70932228049304    1.46790740395345    5.92216102983474
H        20.64355145932321    2.59908321961344    6.90771081042522
C        20.22912118569042    6.99785908286602    3.96491796131445
H        21.19901338660520    7.07393009176943    4.45070546691821
H        19.63990968838989    7.87848524172029    4.21207348032954
H        20.38834854403066    6.99281721642906    2.88581312809142
C        18.43026545013858    1.43264725744641    9.11966100282155
H        19.15058331019259    2.24922130045009    9.08303347322538
H        18.45221592153358    0.92507782133169    8.15622299840802
H        18.73779792121429    0.73066153125196    9.89134745839453
C        14.32322924453250    1.62910533843558   11.99752634519359
H        14.98555518569282    1.56474261376302   12.85809350069150
H        13.89391497322518    0.63953502490123   11.83444069648628
H        13.51469981176278    2.31900393578210   12.23024782266616
C        15.19093550601426    5.35026057008909    7.41864188783765
C        16.30189296407236    5.92473329711999    8.08293936149455
H        16.71236412186300    5.40931601464479    8.93924601019794
C        16.85652309987301    7.10882009834111    7.66694636277109
H        17.71221625859992    7.50390909195381    8.19637208016502
C        16.33314129954143    7.81296295660492    6.58712389808383
H        16.77364166328685    8.74555175327181    6.27051121440943
C        15.23444713971081    7.29835814507295    5.92917702598598
H        14.79999210168935    7.81575015983951    5.08464087509769
C        14.69237087344853    6.09025732232447    6.32591638886596
C        15.32244510056121    4.99804447527609    3.52731574640849
C        15.82068580105361    5.17636223244123    2.23034977041314
H        16.83626680417670    4.87046967593088    2.02660544264296
C        15.03749808985732    5.70147190979379    1.22557852263861
H        15.44901081829961    5.81760411798115    0.23364023302782
C        13.72416385413860    6.07112619032973    1.47947628710820
H        13.10745305275458    6.48343806508182    0.69564263848783
C        13.21970632199296    5.92959932801656    2.75778591251995
H        12.21548943408181    6.25455728831350    2.98978170717490
C        14.00042162551954    5.40064782342058    3.77553569587584
C        15.20659893871288    3.38677172355881    8.73790372436930
C        16.48809308081289    2.87519330947041    8.51621864572151
H        17.03750145892784    3.19230259851588    7.64065872159603
C        17.05659030039785    1.96710097966613    9.39326773316908
C        16.34398872098236    1.56311123041023   10.51464108073849
H        16.78088751747756    0.84918077137025   11.19879748303279
C        15.07992513165908    2.07290365379630   10.77905424524748
C        14.52204437665527    2.98114644024905    9.89371851061457
H        13.55588894887703    3.42566506033499   10.10717177615209
C        17.45921986835388    4.50309691146565    4.61709018755111
C        18.13960084250230    5.65676353750757    4.23428876301573
H        17.58378008502423    6.49292935578911    3.83570268960815
C        19.51317392625734    5.74948926194736    4.38775260079767
C        20.21103321896044    4.67489452017546    4.92072073462424
H        21.28416335677086    4.73834508568321    5.03506284913597
C        19.54987543760296    3.51850560019369    5.31706990064428
C        18.17581618940989    3.44499505462838    5.17327556220686
H        17.65014175161275    2.55137453773043    5.47580723639559
C        14.79013221121473    1.23326009897741    6.30320374828442
C        15.92398121072010    0.40549626948674    5.81891428056217
C        16.40977989630296    0.57817744690516    4.52700865126226
H        15.93420548063367    1.29509980262127    3.87253485177823
C        17.49615769459156   -0.15701433615711    4.08834826117896
H        17.87282769335978   -0.01377908857667    3.08597028620951
C        18.10573111127177   -1.06561512114911    4.93705396948649
H        18.96061611812738   -1.63252739004969    4.59735174724221
C        17.62053338993744   -1.24490092067001    6.22360697941977
H        18.09868934528679   -1.95283160297806    6.88562540016187
C        16.53367997688135   -0.51392854808322    6.66568265981784
H        16.14606227819475   -0.63130202938821    7.66525980878925
H        15.61278469624973    3.74668368909812    5.11917830568500
H        12.19494683232126    1.02143830476916    7.82272532319691
H        13.33845611430575    1.78701321636847    8.74285052500063

