70
CSD_code = EGITAP | q = 0 | S = 0 | Stoichiometry = C34H32N2RuS | MND = 9
Ru       -0.70657621721371    0.67988230473450    7.65160830311377
S        -0.83403886994713   -0.68568485117982    5.70479738627684
N        -1.62530169479978   -0.97123778344201    8.52633365442850
N         1.02825930392332   -0.34947228872451    7.98624073379438
C        -2.13467678526309   -1.94488284038017    7.74192964270080
C        -2.89932534977641   -3.02245954900252    8.24101763444798
H        -2.98877387604222   -3.13881936949980    9.31099782946184
C        -3.53580300474212   -3.89092999120521    7.38691135728814
H        -4.12367760299386   -4.69837349575359    7.79961803437483
C        -3.44625716292083   -3.74718495450940    6.00551743666215
H        -3.96363020688349   -4.42862184659682    5.34884801368905
C        -2.66540815558519   -2.73293630786558    5.48475347387016
H        -2.54290403979089   -2.61471425336328    4.41828605373636
C        -2.01728166085305   -1.86552292818688    6.34182815783470
C         1.39591678715060   -1.36184381117412    7.16771688972535
C         2.49606995369923   -2.21116324851952    7.42187996124791
H         3.06812301113475   -2.05300862076513    8.32394906166529
C         2.82170406965555   -3.23043551950338    6.55972626885459
H         3.66685573930701   -3.86395960201598    6.78828811013723
C         2.08057962646607   -3.46551176003129    5.40576866924049
H         2.34962525973952   -4.26482293629034    4.73366680117943
C         0.98062763652887   -2.67203125097651    5.14216146891169
H         0.37008459115565   -2.84231200616786    4.26811687506614
C         0.64402824443848   -1.65381708017374    6.01295537918052
C        -1.30550456935354   -1.26567396171099    9.84949559064741
C        -0.43720348805966   -2.32478585469274   10.14019818249788
H        -0.06396004010493   -2.92731906889415    9.32325554599779
C        -0.03132776366271   -2.57261494707214   11.43768686858600
C        -0.51637553814147   -1.76742923470993   12.46446532190738
H        -0.19572721795463   -1.95573317822229   13.47973408208752
C        -1.40245624433128   -0.73206830815511   12.20745180516556
C        -1.79488499347021   -0.48848089435432   10.89841913334672
H        -2.49253049465873    0.30845821268489   10.68532358423530
C         1.94885754423709    0.23463257276205    8.84301219475317
C         1.58358392604933    0.55372594557688   10.15373011620642
H         0.59407014929076    0.29281202079243   10.49652648387909
C         2.47097799854071    1.18057011607387   11.01088809318177
C         3.74480308453858    1.49836371252920   10.55679446740576
H         4.44392124908465    1.98628303045480   11.22155144077982
C         4.13515872071818    1.19337670922070    9.25791085153174
C         3.23867478082633    0.56670129547968    8.41054069621997
H         3.52710805586421    0.33167780463848    7.39523257181942
C         0.91874692557964   -3.69059037974152   11.74439250651695
H         1.70108277139345   -3.35259957454646   12.42157749472280
H         1.37866412645033   -4.06539042817400   10.83371907628830
H         0.38967941117670   -4.51270551132423   12.22713612740741
C        -1.94550835618534    0.11342006216665   13.32277480195762
H        -1.90284034873853    1.17074222567335   13.06515534278407
H        -1.38508624025624   -0.04566169448342   14.24093196429600
H        -2.98870221916117   -0.14059801227218   13.51156142900762
C         2.05444153160765    1.51899164838495   12.41226060059042
H         2.86441298573249    1.32574243987591   13.11257394458959
H         1.18650118628790    0.93297039117805   12.70401560409926
H         1.79732366020947    2.57676699333013   12.48552351343428
C         5.51910644456634    1.53534631638290    8.78985750572897
H         6.24424326514536    0.85892781667683    9.24266271786808
H         5.78496192167069    2.55039046577465    9.08038769495109
H         5.59784966749292    1.44560621410928    7.70927220011690
C        -2.31186059569917    2.16806543531957    7.04246132899286
H        -3.23815559995362    2.03882068625329    6.49458169490173
C        -2.30148880973584    2.11986431609347    8.44233533961668
H        -3.23060542469310    1.96278189454976    8.97966863364660
C        -1.11250244705967    2.42199074982371    9.16015639172534
H        -1.13030153408309    2.49160854061884   10.24110915693284
C         0.06401034532921    2.72684060894387    8.45896743188930
H         0.95372137976172    3.02104510067266    9.00483221216286
C         0.08077373106842    2.72403986208166    7.04819714122796
H         0.97166955132118    3.02870507933796    6.51275627963809
C        -1.10730246884355    2.42713160277205    6.34783876158545
H        -1.12133961618544    2.49471516871054    5.26425887618168

