57
CSD_code = EGIXOH | q = 0 | S = 0 | Stoichiometry = C28H22N2O2S2Zn | MND = 6
Zn        3.46712867167773    2.62776779769406    4.15758261239601
O         4.64189592149607    2.84014678120757    2.72399752331301
C         5.89770972640142    2.71992731880304    2.92950554021001
C         6.72830976399561    2.22403961650522    1.88579132765324
H         6.23836972455462    1.94907622116551    0.96360234522477
C         8.07794506728330    2.08860969824918    2.03682089571515
H         8.67666250800418    1.70321724517600    1.22329268502348
C         8.70318942652977    2.44290911437294    3.24212768773595
H         9.77104893836701    2.32764848858347    3.34970700567911
C         7.94691192739990    2.93171630218810    4.26796814099801
H         8.41781458897739    3.21033527818424    5.20165106521203
C         6.54649301460015    3.09251616173405    4.15505878933938
C         5.86299169962816    3.63690577700236    5.25982832954849
H         6.49554702519407    3.92646933249364    6.10607049498951
N         4.57834970489730    3.82106016883043    5.36597462000703
C         4.07073267853092    4.56018362586983    6.41568371846674
C         4.74758872007551    5.67926637951673    6.92150995265672
H         5.69828500043629    5.95239735966261    6.48871281131565
C         4.20332830783950    6.45401239418024    7.92399830920071
H         4.74945912006707    7.31004421022287    8.29144226488967
C         2.96095445784544    6.14382290022049    8.45640684273564
H         2.53616418027170    6.74539505897659    9.24491213070151
C         2.26688492727098    5.05516413341459    7.96356944803704
H         1.29956270135244    4.79391669276581    8.36559938606233
C         2.80365059392545    4.28177307986542    6.94678442211467
S         1.86609343371669    2.89253601441170    6.34385717986848
C         0.43984596587997    3.75949918820659    5.57089285530157
H        -0.02473489356215    3.00087294200571    4.94104169597966
H        -0.25597448704061    4.03117112516554    6.36641340175111
C         0.79391462051203    4.99802224473633    4.77553846811815
H         1.22762143946467    5.76023979767613    5.42368989138622
H        -0.10540198915531    5.39734160556662    4.30477768884412
S         2.04737979721159    4.78981227602546    3.44938122459398
C         1.14398099250054    3.82103734910561    2.25621725709370
C         0.48009289479098    4.50191758518048    1.25009108034238
H         0.50360101336618    5.58097390288317    1.25065524517113
C        -0.19204201864420    3.80904618285546    0.26008797299381
H        -0.70996023856962    4.34384961681276   -0.52071786447334
C        -0.16797638767210    2.42343153413703    0.26789294387075
H        -0.66157444593049    1.86960013381534   -0.51693995539805
C         0.49736157626060    1.74030193132365    1.26511607798515
H         0.54909214709156    0.66239341338668    1.22990453762779
C         1.15630155241022    2.42094776933339    2.29683783112478
N         1.84202967472481    1.75661176864608    3.29957212727542
C         1.40788047523245    0.59998483307896    3.71518356373619
H         0.43377324657917    0.25827658104007    3.34605536606229
C         2.03476134792524   -0.27158075291280    4.62472942843864
C         1.33397231379778   -1.44640105233896    4.98844990033361
H         0.34565853792757   -1.59827473332976    4.57410058384576
C         1.86891369697034   -2.37413343674113    5.83283860039732
H         1.31652607042522   -3.26269087981010    6.09792588421503
C         3.15585444810349   -2.16653161080274    6.35607780149960
H         3.58139458659885   -2.90514898503557    7.02082143878124
C         3.86639309724600   -1.04813796202525    6.03491452695642
H         4.85561056826866   -0.87836685131048    6.43303042546207
C         3.34593560090843   -0.04454098390320    5.16685941872369
O         4.05069696603714    0.98391831592953    4.91090505287135

