56
CSD_code = EGIXIB | q = 0 | S = 0 | Stoichiometry = C28H21CoN2O2S2 | MND = 6
Co        4.23889406182966    9.80933996028256    2.95154892820584
O         2.79268122958371    9.34595608559038    4.11526732778346
C         2.72393999234181    9.65207081746460    5.36138794558610
C         1.77963460610074    8.98347285064209    6.17672155691809
H         1.16285861869719    8.23316131315834    5.70503845557428
C         1.65993143571369    9.26574650945566    7.51098852589435
H         0.93492049823906    8.73126368276282    8.10811945199698
C         2.47032876631662   10.23385597025291    8.11176472892092
H         2.37018523632906   10.44400520521846    9.16554249180809
C         3.38629695184617   10.90959045971141    7.35010835176998
H         4.01522755952604   11.66392405884477    7.80314240707200
C         3.53568651871277   10.65283030874838    5.97419969262325
C         4.46968741437709   11.42337507847665    5.23573635331389
H         4.98571805433010   12.18993080511782    5.81209127381946
N         4.74461723099104   11.31983854581169    3.96983812202659
C         5.59937048548620   12.23940191672197    3.35880878202297
C         5.82295740846092   13.52930465043810    3.84776802763649
H         5.27961749147487   13.88413604458476    4.71128326108297
C         6.70592678547202   14.38013820996415    3.21611258555655
H         6.86010148429726   15.37479556887996    3.60655458145588
C         7.38824383169866   13.96287154331950    2.07935239235470
H         8.08679925252305   14.62764464195393    1.59376405921167
C         7.15209743784655   12.71114782800710    1.55655530622969
H         7.64793375291328   12.37785295845043    0.65820510190937
C         6.24223319560090   11.85037503198588    2.16949957509446
S         5.87821951837975   10.31579218726212    1.46428298981885
O         5.38432411821544    8.83900384744886    4.03932320090862
C         5.31473046018015    7.58284203335686    4.26009749296195
C         6.07342030901925    7.04653670382222    5.33571003987238
H         6.67684651407860    7.73846312345060    5.90269423361447
C         6.03059817974725    5.71721472195229    5.64496719146213
H         6.61213404917749    5.34230310994377    6.47479489232365
C         5.23606402614212    4.82936242639453    4.90425811273771
H         5.21105859118229    3.78303450234667    5.16633813895972
C         4.50417478039100    5.30306806402090    3.85289756980821
H         3.89316532534733    4.62915407274659    3.26815551454153
C         4.52488906077954    6.66856058032748    3.49357912240362
C         3.79403263820582    7.08806140171663    2.36476343859427
H         3.26210780793281    6.29733334319177    1.83582563250324
N         3.70301074604149    8.30681585387354    1.91247081229245
C         3.05586818049027    8.54605501112950    0.70500592733291
C         2.92596146272004    7.58627033946257   -0.30684382001099
H         3.39072065327728    6.61918686995148   -0.19406167562051
C         2.24628456998645    7.87336586383771   -1.47361883342330
H         2.16442536055250    7.11453982455141   -2.23722780198008
C         1.68319775437761    9.12336489443797   -1.67904187252539
H         1.15086637610868    9.34111499129999   -2.59146475877023
C         1.84424872059096   10.10396940261329   -0.71702041675765
H         1.45308284607995   11.09868535789303   -0.86685251500228
C         2.52809506733789    9.81732980278422    0.45077718227379
S         2.80138628293065   11.12346460383066    1.63415820826259
C         1.22529274590004   11.12677467711360    2.45017873570818
H         0.52783534635387   10.40451302867415    2.05686329634946
C         0.94610712523745   11.95310326646864    3.44024527784109
H         1.67273862389935   12.65423525468658    3.81398754939875
H        -0.01357654136940   11.93965079356490    3.92665784825005

