63
CSD_code = EGIXID | q = 0 | S = 0 | Stoichiometry = C28H28N2NiO4 | MND = 4
Ni        7.76524360103607    6.06282605375699    1.69683213020185
O         6.96081626007222    7.16991347860844    2.94762375265875
O         6.85283302235201    6.96526820641324    0.36113779608533
N         8.60965269697523    5.09246201337153    3.02094448239535
N         8.70201913434881    5.05827725846224    0.45651411712418
C         7.65231277694174    5.87055021039416   -1.56861924772555
C         6.82757812341995    6.80449106166286   -0.88548590561694
C         8.62218985743299    5.34600421658698    4.29536350061310
H         9.21473975884568    4.70266563285889    4.93856844920370
C         7.94981068002339    6.40136803129476    4.94619004230523
C         8.65565257256486    5.37995521866549    7.13906048879780
C         8.21395675893363    4.47114403662038   -3.58244047900231
C         7.13918563224800    7.28779199658103    4.18651410221288
C         8.58502848736947    5.10606502705811   -0.83721961147103
H         9.28222181331796    4.52531220371234   -1.43452877404192
O         7.87957665819664    7.59120308405733    6.99864420263878
C         6.40715505409972    8.41677383383179    4.85066809960741
H         5.74355924987485    8.88362754398862    4.12707599991782
H         7.12485363885807    9.14565452135115    5.22081992199839
H         5.84591965600955    8.06083507186845    5.71072285534934
C         9.25922676428847    3.89584888012821    2.47683226699554
H         8.46571537732750    3.14489772357642    2.33310163928057
C        10.37428985098491    3.25461787899976    3.30318943907930
H        10.00400383988860    2.94089023651278    4.28045795279831
H        11.18338485348815    3.97255860658992    3.45272330282619
C        10.27076888497363    3.04424565875181    0.34211173342976
H        10.67709567380347    3.30332356276642   -0.63624553027782
H         9.43601222472156    2.35594816174019    0.19426409807276
C         7.61454658196236    5.72427037635584   -3.02244638621536
C         9.71664252257977    5.54878796545916    8.02140603465302
H        10.16836271568101    6.52511041745289    8.11458538249955
C         8.04379846691344    4.13313343946157    7.03765371008709
H         7.19658105495982    4.00607429672852    6.37823311628677
C         8.13104391076226    6.56573471165091    6.38715640489126
O         7.12498337325121    6.54195397915407   -3.78479149983463
C         9.03788064899248    4.55697245177822   -4.69956502260394
H         9.25525494638818    5.53063990137993   -5.11270683162455
C         8.50577392638396    3.06893960659894    7.79077659763558
H         8.02329003305573    2.10539140465743    7.71242427171771
C         9.58371400955926    3.23703799440674    8.64512171971094
H         9.94654769344830    2.40234259507592    9.22671794972808
C         5.86059582078018    7.66792329591109   -1.64079879098067
H         5.25360305713572    8.22522919456967   -0.93171662059492
H         5.23208703900916    7.06449893534049   -2.29070635611216
H         6.41017664913241    8.35456046280345   -2.28100037895402
C        10.89062363847378    2.02113691403241    2.56289613074214
H        11.70657552603313    1.57244018322601    3.13150810389614
H        10.08779862357978    1.28388737112726    2.49366329974003
C         9.78258255237638    4.28958022415583    1.08457454640995
H        10.63667929682935    4.97156269684880    1.22145104285014
C        10.18654890392231    4.47852520477247    8.76116893637236
H        11.01939102771271    4.61423961928312    9.43527536971545
C         9.57208062133487    3.41270396854706   -5.26346159662637
H        10.22137335313711    3.48835598662510   -6.12320565462935
C        11.37366618647460    2.37491884012623    1.16127073956841
H        11.70846442462936    1.47207047435452    0.64816829242362
H        12.22664380282704    3.05317089600365    1.23320767022716
C         7.89861245496540    3.21847362146752   -3.06220164785863
H         7.22904377419949    3.14409973458319   -2.21686851709251
C         8.42227154385637    2.07506357597996   -3.63771714199985
H         8.16950738150278    1.10539866789224   -3.23373004812647
C         9.26735172685033    2.17056794576746   -4.73167166745204
H         9.67979980890205    1.27598363621154   -5.17469198390774

