53
CSD_code = EGIXOJ | q = 0 | S = 0 | Stoichiometry = C24H22N2NiO4 | MND = 4
Ni        5.58895392908151    2.42337184534016    2.01655941727429
N         4.34147444262125    2.42490337918665    3.36572368276709
N         5.56515791094441    0.58845710843332    2.10932147786128
O         3.24738043483904    6.99189110287116    4.09927921393257
O         5.55149716101279    4.27246349909131    1.91293660956363
O         6.88463459347223    2.38842348292329    0.69306106621737
O         8.80184386890223   -0.89864113027991   -1.03930283591688
C         1.32671447487182    5.82824977446531    5.92778414593567
H         1.98133051437151    6.52666424296072    6.42724175814569
C         0.13155164985370    5.43983021967534    6.50463157472247
H        -0.15239223022307    5.82992124420607    7.47079417092494
C        -0.70607509049192    4.56045646312554    5.83806183601608
H        -1.64253653088842    4.26084096034919    6.28514306310391
C        -0.34690018279768    4.07317629784866    4.59160461006752
H        -1.00708270819097    3.40016232300319    4.06410694633822
C         0.85580318010663    4.44639272112212    4.01933288182626
H         1.12956510318706    4.07699806873776    3.04103185585383
C         1.70813313184989    5.31970080365428    4.69039495474875
C         2.98098249036411    5.80167079371307    4.06886423369096
C         3.82762638181826    4.78539809226994    3.44275287020886
C         4.82333633987323    5.12353064292487    2.48519416513994
C         5.05061918631947    6.55303983872925    2.09150322470830
H         5.76238707709188    6.58653136986846    1.27044961057948
H         5.43888130594959    7.10695014909760    2.94342153615670
H         4.11539798815783    7.02782121499078    1.80592780158715
C         3.68980083453591    3.44348046574113    3.84662786870871
H         2.99602958255818    3.24793165117476    4.66487195314584
C         4.15114951234964    1.11829631586498    3.98623269764696
H         3.12652438992153    1.00415031711642    4.35957783501974
H         4.84322469831523    1.02489337465497    4.83315923583413
C         4.48273144966031    0.05971774492241    2.93227725888055
H         4.76833534223463   -0.89169461454813    3.39648051273174
H         3.60606391564637   -0.11287360947221    2.29457478769310
C         6.34229757683295   -0.25052954202138    1.48849820520076
H         6.16548331196926   -1.31258495801940    1.66134593957912
C         7.36367825351388    0.07923042511364    0.57684271920793
C         7.54417455645901    1.43844341100746    0.19860590195419
C         8.56775096159809    1.81588703741687   -0.83081476646413
H         8.63169259800582    2.89965162243152   -0.88744444852255
H         8.27751148336700    1.40949773075402   -1.79724303861449
H         9.53668085636956    1.38799778508243   -0.58676649186347
C         8.16779360342550   -0.99749765306255   -0.00170342795986
C         8.20449540762601   -2.28569995019120    0.75915981188625
C         8.44824689619446   -2.31364670820960    2.12995141078073
H         8.58136355564923   -1.38614680285146    2.66903669912700
C         8.54514196392031   -3.52351471798788    2.79345312314636
H         8.74094299851079   -3.53976956553747    3.85576660770049
C         8.39196216774377   -4.71279267672866    2.09910440957332
H         8.45910545883876   -5.65547543037707    2.62206790722653
C         8.16123275777620   -4.69153728711775    0.73329318627152
H         8.05182309195785   -5.61777636880923    0.18873824795328
C         8.08164008255805   -3.48414383907746    0.06386535738172
H         7.92013827036890   -3.45259866558709   -1.00327937468278

