29
CSD_code = EGIYOI | q = 0 | S = 0 | Stoichiometry = C12H12CrO4 | MND = 9
Cr        2.44615608690459    5.60709688660538    1.31393749756053
O         1.37119407477786    3.19555883305905    2.68737526977746
O        -0.34211728585457    6.46358518893096    1.89670501694396
O         2.62880708088548    6.44540190738561    4.16259751038552
O         1.23775670401889    8.40704231688646   -1.15651385986965
H         0.78392813407868    9.25590400745334   -1.14658523910453
C         1.81134538728160    4.10142229038599    2.12072468417116
C         0.73469521474385    6.14614321019584    1.62134157734359
C         2.60435721303874    6.13013497178903    3.04966415044528
C         2.41356066441574    6.04321821916951   -0.89832061961551
C         2.92582572392590    4.75690430648925   -0.74651583647509
H         2.50356581924008    3.93371984882548   -1.30932944845666
C         4.04372249739181    4.54001230393756    0.08284911744227
C         4.65440562350111    5.61894551417256    0.71743422801959
C         4.12780243335723    6.91696957406285    0.56573834166480
C         3.00985707275478    7.14359374303335   -0.24361733965937
C         2.47483119793122    8.54626967328289   -0.47607285600697
C         3.46615334799878    9.33050315185835   -1.35689685588929
C         2.25082189084850    9.27454077793358    0.85574464776658
H         1.59224074512043    6.23073068894488   -1.57721600470276
H         4.47815926710771    3.54993420921581    0.15380784539569
H         5.56406515740851    5.47451446835818    1.28807890277860
H         4.65795593673820    7.74844718803632    1.01449312989680
H         3.57271262732276    8.83419172399572   -2.31939483542530
H         4.44154216474870    9.39213063819766   -0.88190598627841
H         3.09774095847187   10.33998424254765   -1.52824445533038
H         3.18069787705721    9.40766032550820    1.39999924925210
H         1.82440841159978   10.25959448804237    0.67018031070089
H         1.56200797318449    8.70074530169609    1.47374185726892

