32
CSD_code = EGIYUO | q = 0 | S = 0 | Stoichiometry = C13H14CrO4 | MND = 9
Cr        0.30392555179529    5.96134775699921    1.82871357948546
O        -2.15750580017994    7.13198734967698    0.63566746492073
O        -1.44670160001171    6.21858902706846    4.21781508063279
O         0.68734693314300    8.82917140863411    2.52372461412040
O         0.29481127197148    3.22260163367474    4.44173200255051
C        -1.19048202725616    6.65599441832683    1.05361101616618
C        -0.75042267114137    6.09311095654300    3.29790781192640
C         0.58288495834378    7.71456122093042    2.23771243245894
C         0.75212076168817    3.79537346872533    2.15053585992135
C         1.87109153170066    4.52668549628787    2.61117154924134
C         2.53307495332654    5.43657521971411    1.78716814314418
C         2.09282433139101    5.59334865789994    0.45245237195562
C         1.02134137024802    4.84270456857100   -0.02439730831632
C         0.35239073638489    3.93320938822183    0.81666453561403
C         0.10200888915828    2.79779036037450    3.10251164175762
C         0.82519341843599    1.45025300225092    2.96619123253323
C        -1.39696488958761    2.63560771990742    2.82578313396783
C         3.75169270270870    6.16667327351923    2.26611093876186
H         2.23022466307646    4.33838406723510    3.61648282171331
H        -0.43208778901746    3.31224243729344    0.40471255981195
H         2.64152631273793    6.24682306879728   -0.21573005657219
H         0.73852395291078    4.90733237588273   -1.06899993395177
H        -1.88069921546250    3.61076473322738    2.76576481375297
H        -1.57622702714522    2.09091033670635    1.90346887802125
H        -1.84209745990893    2.07176748465433    3.64279596807979
H         3.77359896153911    6.21603006791818    3.35256949139708
H         4.65400781657014    5.65266959794504    1.92818195642875
H         0.37083615711978    0.72574032115595    3.63573080387942
H         1.86974213383321    1.56625923873443    3.24404697739936
H        -0.30428748764564    3.95702447023252    4.62720285475884
H         0.76396850281587    1.08658541360809    1.94392600452830
H         3.77394005645728    7.18058145928324    1.87087075991092

