32
CSD_code = EGIZAV | q = 0 | S = 0 | Stoichiometry = C13H14CrO4 | MND = 9
Cr        3.18007087061357    1.93209301549093    3.05934007096771
O         1.30383657085240    4.12973403155013    2.35613542975885
O         0.87748253174530    0.44431517679797    1.90445976702538
O         1.33970816117208    1.87071489708651    5.39668916405573
O         4.87550197434859    4.49488780074204    0.61157193813259
C         2.07367830756727    3.30846924664718    2.62023895943396
C         1.80207366058324    0.98858960916386    2.33869039848734
C         2.08724729959379    1.88749671703388    4.51424403795585
C         4.90555741532397    2.38429536440844    1.66866081229779
C         4.76201543846750    0.99610761402771    1.74868106209253
C         4.81575617187608    0.33673555683895    2.99307411453170
C         4.98080618554453    1.05799942160147    4.17697469530047
C         5.13185740069020    2.46095147777615    4.09705396556552
C         5.08924669748545    3.10985306364383    2.86585072731971
C         4.91979020872300    3.10452844632480    0.33149964947225
C         6.22430062857171    2.76880301777475   -0.41595291252217
C         3.70140070583045    2.71108609392597   -0.51355672023063
C         5.09903680494334    0.36437852540979    5.50118322812319
H         4.69803339805369    0.39743280607280    0.84779530326676
H         4.77720992277842   -0.74625825838880    3.02156221053684
H         5.34392654607420    3.02388683985141    4.99866566534836
H         5.26697438388414    4.17501907407556    2.80213263361198
H         6.30601702260511    1.69944022953800   -0.59005717624745
H         7.07888334855556    3.09724375060611    0.17215341959305
H         6.24826830376567    3.28096334056517   -1.37597505603038
H         3.70526557367133    1.65170831297756   -0.74989610189483
H         2.78840457624730    2.94440852799500    0.03219532577962
H         3.70715686195332    3.26656140274798   -1.45075260153777
H         4.71352316582394   -0.65124028765133    5.44545885027903
H         4.54433567821011    0.90364339851915    6.26711823459374
H         6.14489553156474    0.31875873668331    5.81161340982695
H         4.67783865287969    4.96659305016396   -0.20385250489433

