49
CSD_code = EGOBUZ | q = 0 | S = 0 | Stoichiometry = C23H18ClMoN3O3 | MND = 8
Mo        4.53591297762558    3.68746759240690    3.15266253595406
Cl        4.31146801672018    4.67996607971341    5.38953582495318
C         5.54625165700552    1.25076617169786    4.77946419850686
H         4.55093912110665    0.86565415893252    4.60030946441030
C         6.46101160285395    0.51770784744316    5.53451186622569
H         6.16952010589136   -0.43975234982959    5.93635661045547
C         7.72241032105806    1.02355929794110    5.75163238275591
H         8.45586554456055    0.47811721114495    6.32692064445813
C         8.04616493982495    2.27674189896400    5.21547992327868
C         7.05187666617194    2.93660918380837    4.46162052700620
C         9.30763440434971    2.91268447900487    5.39907625071268
H        10.06237224762580    2.38833063410973    5.96648075695713
C         9.55364260042315    4.14371131394104    4.89036981590687
H        10.50728230326007    4.62730504511780    5.04365854050229
C         8.56234992902760    4.84372996981631    4.14351961446212
C         7.31644559317569    4.22203051692519    3.91146425981867
C         8.74805936497420    6.13395492097028    3.62598215580602
H         9.68296923438832    6.65033776106905    3.78603706320336
C         7.71413112513847    6.72147078707164    2.92857863439882
H         7.81148559153684    7.71800597838280    2.52771549113664
C         6.52860967141900    6.01739410943605    2.73392850756273
H         5.71197761300234    6.46166128287900    2.18019344570458
C         3.37597993180115    5.07677925701136    2.45430819940413
C         2.88396588183049    2.69437767056217    3.42276784886925
C         4.54666133913681    4.72399649039405   -0.11097903910641
H         4.84517631998525    4.37776635246650   -1.09312340942345
H         4.02011100750096    5.66583879296626   -0.09310401473078
C         4.71239483047012    3.98681407560400    0.96705088031997
C         5.38281287499908    2.78653207100363    1.29684750081520
C         4.50580751610048    1.84402903904801    1.87917260877725
C         4.12523279709561    0.63128454480871    1.82223008355935
C         3.60522613040493   -0.56765469793317    1.79099786052402
C         6.84720876261133    2.56782817440918    1.23989082538419
C         8.91841189650749    3.29551142147275    0.12621740078870
H         9.11065682574647    2.91686214096463   -0.88497480855274
H         9.31133124851403    2.57598627001088    0.84873818518103
C         9.58063215435256    4.65620024672289    0.30170362827162
H        10.64809473399923    4.57363218414400    0.11719826860627
H         9.42908827603184    5.02715143588711    1.31248748830624
H         9.16304812613343    5.37682163428593   -0.39886172523721
O         2.70067530636257    5.88120250911865    1.99155340054848
O         1.91589301786358    2.09335515511249    3.54254527478392
O         7.42554202201806    1.74720236944010    1.93887483893280
N         5.82860552584078    2.42120985873668    4.24381797488774
N         6.32629804468585    4.79478346171084    3.19657873903198
N         7.49370518901692    3.36261520820894    0.35241133100548
H         6.95596954867974    4.02002289614700   -0.19244290019403
H         2.66738978684929   -0.76399034931841    1.29642033517358
H         4.11380027435742   -1.41191210429716    2.22827471011255

