81
CSD_code = EGOFOW | q = 0 | S = 0 | Stoichiometry = C34H38Cl2N6Pd | MND = 4
Pd        6.08467355587220    0.00057667923212   -0.00051919200693
C         4.75356179613814    3.27504299208783    6.44608434875593
H         5.52430675673256    3.91575753998971    6.85652344476273
C         3.64825199856979    2.90170933846651    7.23150976443102
H         3.56827932677764    3.24916367552851    8.24997691686908
C         2.69081280540538    2.10220932794223    6.67034348715137
H         1.81822378652248    1.79227697496771    7.22911225934658
C         2.84377105579850    1.66864093483652    5.33675065514471
C         1.90764818565432    0.84438649858720    4.68193567336701
H         1.02155379359871    0.53501006024722    5.21769295309900
C         2.12997372033842    0.43979371473020    3.39467906162982
H         1.42215376302734   -0.20063404218223    2.89065056377582
C         3.28731166379951    0.84192906193449    2.71184293924594
H         3.45003945817873    0.48531229095541    1.70163706510716
C         4.21345920443406    1.66153591017224    3.30681708709622
C         4.00887629713634    2.09422655530605    4.64023170306370
C         5.44441440473438    2.11262931689121    2.56268617585958
H         5.93091046136219    2.91402330160479    3.12313626563574
H         6.14960211597018    1.27174250932245    2.44936706618018
C         5.21202997272326    1.80047921233347    0.13401026308009
C         4.51476812005909    3.75750257337365    0.92998569953333
H         4.33029588868575    4.50923304516000    1.66940485888419
C         4.26038644082274    3.73756829857843   -0.40044183141204
H         3.81457216625657    4.47504550674549   -1.03625537862790
C         4.59139979601678    2.05478368566320   -2.23173181943727
H         3.97915643494968    2.76273290306104   -2.79663345653425
H         4.09073831735519    1.07797564416787   -2.22042153726243
C         5.97421856341933    1.91094443701426   -2.87561351387959
H         6.48319104126666    2.87837236899490   -2.85464642341134
H         6.57295483771924    1.19823020541799   -2.27809814339123
C         5.86477055748635    1.42019672728883   -4.31739679930214
H         5.50946756875316    0.38794989154196   -4.32616779509798
H         5.12792949214584    2.02826989573600   -4.84915918460719
C         7.19999483115528    1.50677297507965   -5.04521063357688
H         7.51984752202942    2.54281293388860   -5.13393090030708
H         7.11822453171347    1.08585229778448   -6.04460099361054
H         7.96530210297265    0.95879110822127   -4.50353602960547
Cl        8.11004680710474    0.97347051457685    0.49107600594480
N         4.69046714978094    2.52643043845320   -0.87079945288308
N         5.10381992301394    2.56087591742819    1.23549255743724
N         4.93024628744076    2.89588627354203    5.21284175991002
C         7.41674280795811   -3.27741026920490   -6.44512157922295
H         6.64616997363210   -3.91854893514110   -6.85522525271342
C         8.52219563773444   -2.90458293662363   -7.23058237362122
H         8.60245840587645   -3.25285611386296   -8.24874682439032
C         9.47938306625004   -2.10447863590533   -6.66984932329615
H        10.35205524217900   -1.79487393304307   -7.22867235825350
C         9.32603832813102   -1.66982371728597   -5.33665364643803
C        10.26190529150419   -0.84493560916941   -4.68226946432830
H        11.14807109077727   -0.53584960629581   -5.21807900223255
C        10.03926932994562   -0.43939539136671   -3.39536219540119
H        10.74690596888054    0.20150764869375   -2.89167717334759
C         8.88182151739600   -0.84112893788142   -2.71247026032253
H         8.71882224174502   -0.48380308389032   -1.70255230899768
C         7.95588515602307   -1.66127486034948   -3.30704045461183
C         8.16082583757516   -2.09499918318142   -4.64006076376246
C         6.72484721042706   -2.11193898233759   -2.56280100897669
H         6.23815384260554   -2.91333710313124   -3.12306398958420
H         6.01986385688929   -1.27086674456294   -2.44956722495695
C         6.95728563587034   -1.79941099162483   -0.13423356218044
C         7.65415445262207   -3.75672090317316   -0.92983334136633
H         7.83847969515223   -4.50861016036151   -1.66912028025583
C         7.90848370315534   -3.73662946754535    0.40060402835977
H         8.35410421670070   -4.47413429426768    1.03653584452197
C         7.57760814127470   -2.05360722087521    2.23166132358017
H         8.18994780310430   -2.76143828664195    2.79660919927271
H         8.07810351806306   -1.07671270847715    2.22033917498892
C         6.19471677680063   -1.91006961140872    2.87545225796615
H         5.68588258247136   -2.87757770143692    2.85425894326152
H         5.59591056737274   -1.19735749096556    2.27803817227039
C         6.30396529574845   -1.41961082557492    4.31734656097761
H         6.65904927745699   -0.38728904337417    4.32638565293003
H         7.04087522236914   -2.02765195898122    4.84906268246682
C         4.96866646118499   -1.50661542668627    5.04496352288745
H         4.64898126209208   -2.54273523637259    5.13337743441638
H         5.05024643098829   -1.08593024263947    6.04446385044623
H         4.20333187339769   -0.95863210415950    4.50332755880508
Cl        4.05999052196204   -0.97361816483824   -0.49102713079262
N         7.47865357529950   -2.52529592158461    0.87073796117154
N         7.06539482484279   -2.56001258889057   -1.23553960262299
N         7.23970085361777   -2.89725275025406   -5.21224053700421

