51
CSD_code = EGOGUE | q = 0 | S = 0 | Stoichiometry = C18H20N2O6PdS4 | MND = 4
Pd        2.28340031601107    5.60909784177936    5.79513468245899
S         1.71674476455404    5.51681676621099    8.67614877642559
N         2.76464002148692    6.20863925829470    7.64057226399763
C         2.68369322715415    7.54902228874573    7.66797717169146
C         1.96761679797663    8.04363315956816    8.87974893052697
C         1.85960426407133    9.35487579131561    9.31308693424133
H         2.36279573174466   10.14229304937125    8.77422223565920
C         0.56410735901230    7.26709265441134   10.68245585137612
H         0.07054252825183    6.45896293052874   11.19817232781553
C         1.31693990213572    7.02430488490703    9.55753403573629
C         0.46227086984850    8.58214132861205   11.12357398568120
H        -0.12363770577838    8.80381767228406   12.00277535932321
O         0.59889582888603    5.02025543286164    7.91001674896023
O         3.11434264698541    8.25966630980345    6.76896493492688
O         2.37869324361661    4.57162515210741    9.53333495746536
C         1.10150499556324    9.61091148285480   10.44615565309803
H         1.00612686822547   10.62411258755237   10.80698135108507
S         0.37679061632614    7.06108432571966    5.84861978473317
C         0.80111482048572    8.22361428641164    4.51229767933479
H         1.68688002527498    8.75589360498302    4.85768152247596
H        -0.02477646326870    8.91556687360934    4.36845877776599
H         1.03199461380116    7.69024538310953    3.59261627996724
C        -0.88140287729478    6.01858765450064    5.05271037754037
H        -0.95781180433924    5.12760473531450    5.67416637608492
H        -0.55475989491465    5.75300934908368    4.05107490361166
H        -1.82635479337737    6.55581841377165    5.03004436459077
S         2.84974408955971    5.70154497110798    2.91408248490830
N         1.80202263829358    5.00955800881933    3.94972929165313
C         1.88338293687706    3.66921682989424    3.92252506705793
C         2.59955292388282    3.17465131908097    2.71076868344395
C         2.70789036642798    1.86337888270545    2.27761042518246
H         2.20484437098419    1.07593838086949    2.81657983049887
C         4.00288490744259    3.95133642738284    0.90798669012644
H         4.49623689738963    4.75952889229809    0.39216852236692
C         3.24994014633478    4.19407405848447    2.03284823837745
C         4.10500949515497    2.63626189997266    0.46702913412122
H         4.69101179693867    2.41460950827595   -0.41211412367946
O         3.96742611707772    6.19851794113233    3.68018277227936
O         1.45312804056978    2.95857830765095    4.82169556263137
O         2.18754367870798    6.64649356100840    2.05680387786812
C         3.46600528667098    1.60741404276863    1.14454314040720
H         3.56159006077124    0.59420483123657    0.78380842241085
S         4.19033799599885    4.15794259085794    5.74218949953381
C         3.76662329928597    2.99507103855639    7.07834965383864
H         2.88111096073145    2.46234222370725    6.73298164000410
H         4.59289800715956    2.30358569085411    7.22221962904997
H         3.53549035981360    3.52847588265648    7.99794046265491
C         5.44872845182321    5.20085784392826    6.53726557065941
H         5.52464878041613    6.09179727947493    5.91566716801138
H         5.12226890811298    5.46639776975587    7.53894564556202
H         6.39382358113455    4.66382859980559    6.55966644445312

