47
CSD_code = EGOJOB | q = 1 | S = 0 | Stoichiometry = C18H22CoN4O2(1+) | MND = 6
Co        5.35417113858244    6.15888733393757   21.21156198717401
O         6.67486235152438    7.13392713726536   20.36959086789851
O         4.63830023160413    5.68286789028497   19.57908404966680
N         6.18944521308409    6.75303382192707   23.00578342027824
H         5.81981138979892    6.29790539292101   23.83982848354762
H         7.19650440947080    6.59920141189021   23.00994653140919
N         6.33050216777427    4.55104305428499   21.16488269667220
N         4.35999979380018    7.75204673728691   21.32922860419354
N         3.86593178583514    5.02609817704914   22.09009151071677
H         3.78514956417593    5.10835308699425   23.10307001796797
H         2.95228884126743    5.25779746178511   21.70352904418593
C         7.62062483708321    6.65151192763923   19.62987060084036
C         7.33710322453399    4.31355874780037   20.39580625072225
H         7.72287709737869    3.29484827175084   20.33862823546453
C         3.78169700675169    8.34353321212183   20.34088319598100
H         3.37016363948022    9.34163172752767   20.49680935446380
C         8.01449881130489    5.28171278353554   19.61401332851227
C         4.08153641155264    6.48588088294114   18.73083798765672
C         5.92424369535633    8.19948609829626   23.08613915993696
H         6.60925316379902    8.70487011513437   22.40368198257273
H         6.06416373743710    8.59053009065553   24.09850693670482
C         3.61292962711885    7.79472569619040   19.04560853539700
C         9.09088244065548    4.87816998569690   18.79742796730379
H         9.37114126715072    3.83494885352817   18.79451246635906
C         4.49513687641806    8.43068412356090   22.60096598491026
H         3.78399902378638    7.99987372934859   23.31735348127349
H         4.28696136266119    9.50145152313916   22.51071023152877
C         3.25751188866300    6.79302627848287   16.46884517246097
H         3.12230591433942    6.40788957542291   15.46952482493236
C         5.70554592817895    3.46827047509915   21.89505520946749
H         5.98325433575596    3.53989459013281   22.95443417801533
H         6.02640807935607    2.49122791945311   21.52026371254830
C         2.80100775846544    8.07801083437018   16.78133735842361
H         2.31622996524925    8.67617796123846   16.02694485204672
C         2.97983232880580    8.56411842526590   18.04788238549860
H         2.63616175635630    9.55569678979195   18.30382889142179
C         8.34567760341671    7.55053086789110   18.81419421914859
H         8.04595955390610    8.58685763241112   18.82801387565856
C         3.88086832786442    6.01843207445112   17.41156355590313
H         4.23670813139350    5.02759958790909   17.17573897178375
C         9.77097163256244    5.77698625950931   18.02153797864721
H        10.59175886062978    5.45606712027987   17.40086183350890
C         9.38960679300969    7.12293731214648   18.03658126178058
H         9.92103069332167    7.83419513890617   17.42261173311197
C         4.19534427315000    3.63337489021924   21.74255114474659
H         3.93232250693334    3.47743606448969   20.69521358404126
H         3.65601455925642    2.91269092803715   22.36476234351557

