85
CSD_code = EGOLUK | q = 0 | S = 0 | Stoichiometry = C29H47ClCuN7 | MND = 3
Cu        6.53040695212641    8.46802606620927    3.25507129464133
Cl        6.09236835361260   10.57786260447777    3.46845972023986
N         7.98851486903946    7.18932507239207    3.69418339590813
N         5.99956294080701    7.05041220302205    1.88216728351364
N         9.95153485969154    8.95180461156763    6.08917430673838
N         4.11573279350302    7.76873806011178    0.70854349630153
N         6.05717043284950    8.22950733434404   -0.27984297540804
N        11.58891802271382   10.02643896972311    7.26642940774852
N         9.60810386064795   10.07748513204653    8.27598351091426
C         8.01964765488607    6.10949177031108    2.91907005977140
C         8.92204035380238    5.08067714351099    3.15294193245007
H         8.93936311751260    4.21806981499318    2.50461422064631
C         9.78465464731496    5.18427625317338    4.23224036573658
H        10.48868852687346    4.39353694052264    4.44617895401912
C         9.73027466673393    6.31094968371347    5.03543553700476
H        10.37555656481162    6.42722993312714    5.89035840560200
C         8.82380750722203    7.31523229065465    4.72603932221716
C         7.02395563586622    6.04123659881351    1.79142224881741
H         7.55696030732844    6.04090422567648    0.83052829241776
H         6.52416083178277    5.05864112514368    1.86296856566840
C         8.69668228527022    8.57792563181326    5.53026870672996
H         8.34818292983856    9.36174871373500    4.83361680642820
H         7.87129887947698    8.40167717705751    6.23509446146259
C         5.48212796657549    7.66453142124009    0.84844987891259
C         3.84781412451671    8.37392435058103   -0.49486625922130
H         2.85874949557268    8.56342579425114   -0.84981644965216
C         5.01445766629420    8.63857741950283   -1.09939590382869
H         5.18259354579471    9.08928321062415   -2.05370480892057
C        10.26764461757827    9.62765999846247    7.12639142207778
C        11.72858662780792   10.70256916460102    8.45794570325338
H        12.65706865223584   11.10564084966583    8.79842098563417
C        10.53608023996334   10.73368070400361    9.06743318285339
H        10.29019623534633   11.17785707164773   10.00630077155973
C         3.11989689989623    7.38427853053196    1.71221923452032
C         3.27172176826631    8.28321206848754    2.93915748168341
H         4.27534619544077    8.18381955949985    3.35743526859736
H         2.54736119680372    8.00735284273176    3.70045903258575
H         3.12501308770238    9.32701334119212    2.67198524525061
C         3.32194187033887    5.91396407638509    2.09304184110729
H         3.29298243462208    5.28603201697444    1.20490082753445
H         2.53203262112288    5.59882962052183    2.76935595488860
H         4.28026052017598    5.79158047610834    2.58467375438425
C         1.70991077768752    7.55377318506469    1.14102586239303
H         1.49739818404104    8.59575388708697    0.91545686805178
H         0.99086312408638    7.22257977627596    1.88584291216498
H         1.57110119178102    6.95133463213070    0.24575875621408
C         7.33944637896353    8.94878438014479   -0.44152655670274
C         7.06584808910569   10.43645108738187   -0.17635367610880
H         6.28726439063098   10.82094322541652   -0.83040119969148
H         7.97058950885921   11.01574377753791   -0.34056560970732
H         6.74884688034572   10.58041004463543    0.85597630633538
C         7.83699215485966    8.72475665296656   -1.87683219940482
H         7.82961091018146    7.66351341286330   -2.11809491599576
H         8.85613380737448    9.09145458087736   -1.96550919407601
H         7.23073682576209    9.25142350590125   -2.60796158142819
C         8.43779795410728    8.50651537944963    0.51913457300934
H         8.08301949265359    8.52354090966967    1.54756626046994
H         9.26246163106605    9.21157809874459    0.44600189778187
H         8.82214844831349    7.51966718430313    0.27496490067924
C        12.61141294757820    9.88755728400554    6.23350780010450
C        13.92784773420914   10.51076611231429    6.70286643008752
H        13.81479294881820   11.57523006727541    6.89415439441562
H        14.67156203798164   10.38758343374102    5.91954721236258
H        14.29820662587623   10.01980420373122    7.60006216123274
C        12.84166232939570    8.40176336869756    5.94274003135266
H        13.11901380812393    7.87731026257164    6.85478230803940
H        13.63809710930707    8.28233239883273    5.21316340035242
H        11.92552726163304    7.97797385877151    5.54824388153216
C        12.14064825138837   10.60674227125757    4.96497036801018
H        11.20529051613762   10.16943529333432    4.63159350492650
H        12.88428853072136   10.50521161752667    4.17935838457302
H        11.98401941241688   11.66391829958634    5.16726824020134
C         8.20523430310436    9.90621851506859    8.65033664015285
C         7.88467279584745    8.40048445075724    8.73761532326093
H         8.49869673651853    7.82286285244185    8.05423996775413
H         6.83634056580557    8.21526318871463    8.51800799751414
H         8.09306064422643    8.03442314615155    9.74160667329746
C         7.31189638888385   10.67718578165755    7.66615964822456
H         7.49153444115154   11.74457853548232    7.78092030331015
H         6.26330249050512   10.48350319380306    7.87687219669079
H         7.50488496652320   10.42806698038393    6.63110245812786
C         7.93094766540602   10.49981443900939   10.03893705800031
H         8.54779838552518   10.03379381908278   10.80432781317114
H         6.88840455871128   10.31194751610004   10.28510173703169
H         8.08962403462900   11.57537551612351   10.05259617949227

