102
CSD_code = EGOLAO | q = 0 | S = 0 | Stoichiometry = C39H58N2P2Ru | MND = 9
Ru        8.49975277286899   10.81622663797175    2.66482713915454
P         7.20105068345828    8.94949455701932    2.60765874982157
P         8.37022064149768   11.79254518462928   -1.90966637889628
N         5.78204848639811    9.39573014473792    1.81119527695289
H         5.20560204002900    8.64724239033639    1.44003473535850
N         7.72246344460509   10.99533770412150   -0.53834382159172
C        10.71729714168261   10.95789737676460    2.19418189350223
C        10.30111842012185   12.19127541375709    2.80244425979652
C         9.93871875177394   11.91615519801539    4.15844875656011
C        10.00231737102869   10.51560986277148    4.35987665670672
C        10.50854975643474    9.91519416410143    3.13575803293207
C        11.42919307443620   10.85884191289587    0.87737138114327
H        12.39794494625952   11.35818137186322    0.94740884319674
H        10.86212455323749   11.33504817336449    0.07648198573748
H        11.60132551640980    9.82166022780797    0.59960413103259
C        10.62395810860684   13.55634338277373    2.26822747068263
H         9.87309185499771   14.28858923159794    2.56145396952735
H        10.69372748328595   13.54907833028940    1.18187734682998
H        11.58824275485465   13.88537641078728    2.66402624018599
C         9.79287678823684   12.94010777145715    5.23905463006962
H         9.12859395419788   12.59964959241815    6.03080369679039
H         9.41469042671126   13.88119045356639    4.84831518953479
H        10.77477345640757   13.12598052404060    5.68192477882153
C         9.97204900797877    9.83464583628700    5.69867800099515
H        10.94840588706791    9.92981301657350    6.18129295918807
H         9.74581045339881    8.77548066561546    5.60080316314826
H         9.22881876811000   10.28261426230828    6.35589102052190
C        11.09562238468835    8.53308757698415    3.08363117148486
H        11.26939272058867    8.20861872419823    2.06133244613882
H        10.44697889350736    7.80583555912456    3.56823735292431
H        12.05370189605067    8.53189248922181    3.60938993791196
C         7.94487576306932   11.65697862638141    0.69824703290950
H         8.60369371903952   12.51764612338054    0.61611118242008
C         6.82527393512514   11.57663828137443    1.54682524503768
C         6.73461386503773   12.18584041728002    2.84533608322885
C         7.04726264624970   13.62183473637184    3.02079484273094
C         7.25319632713208   14.48007795455532    1.93392890555381
H         7.20345140202221   14.09470817413462    0.92799879544715
C         7.48226816623859   15.83025969757586    2.11510332525674
H         7.64146139593118   16.46230872481647    1.25238278933920
C         7.49180671780033   16.38011348751167    3.38588601894780
H         7.67093414910101   17.43595107818055    3.52575407695265
C         7.24207263366898   15.55789546816658    4.47199245446814
H         7.21894511426118   15.97387677901318    5.46969776746583
C         7.01639848188992   14.20717210420925    4.29304262641703
H         6.80627759764492   13.59228341238382    5.15454939757188
C         5.60334185270583   11.77686238559909    3.73421322708314
C         5.85716571450751   11.29455646516471    5.01473700361155
H         6.88753596176894   11.17195309163269    5.32535300817140
C         4.82149439642842   10.98044937448678    5.87579360353403
H         5.03711587025808   10.60471055988214    6.86642818658959
C         3.50835274445138   11.14582083580989    5.47000777933281
H         2.69668641956244   10.89398492489495    6.13704797103434
C         3.24220538585863   11.65250834756307    4.20964736921729
H         2.21936050944247   11.80605912354172    3.89512730546385
C         4.28006563401950   11.98141821708656    3.35627152811492
H         4.06123581196739   12.41942514401796    2.39269725199335
C         6.44989309141809    8.17409434418684    4.16294783671640
H         6.53669105040780    8.99821153208526    4.87865500559240
C         7.25606478534656    7.00905859774595    4.72909476310481
H         6.94107054205912    6.80933193868230    5.75296369984439
H         8.31710704755620    7.25028883899549    4.74561843172459
H         7.11323151973823    6.09739256338527    4.15355425266692
C         4.96557131188478    7.83153969075723    4.07365815622360
H         4.77200655146472    7.01529509674572    3.38203147289503
H         4.39606297111779    8.70290917805207    3.76282466024252
H         4.60969372794155    7.52778766163323    5.05740593209291
C         7.85824439821151    7.41090041159676    1.71035424466039
H         8.47635430112465    6.91222653547212    2.46132122509266
C         8.76897203119401    7.82239264689879    0.55541344665039
H         9.59126981294160    7.11906010746520    0.43479811840123
H         9.17441771466239    8.81911872949414    0.74522592077752
H         8.22101513148667    7.84733373208811   -0.38326143461195
C         6.79085910750918    6.43192765995537    1.23265334729458
H         6.15015574525968    6.88415115408137    0.47582661268016
H         6.16500850907062    6.08351980631516    2.04960183538328
H         7.27036896012444    5.56297348074993    0.78158654005939
C         5.86138954993388   10.56389777051204    0.95262583715888
H         4.84878770812204   10.97867445426034    0.86537293938054
C         6.45642319062757   10.27116331668666   -0.44760149553859
H         6.62758535192564    9.19544975268926   -0.53790204112952
H         5.77096470864176   10.57221742556180   -1.24305455768806
C         6.85166822860193   12.50941112583416   -2.79135545374922
H         6.12003278341681   11.72221197286236   -3.00566184093805
C         6.21830666144579   13.54340459321337   -1.86433535724539
H         6.93037953079591   14.33953304051714   -1.65036010515096
H         5.91107606443500   13.09338374315119   -0.92104144422574
H         5.34005165460609   13.98976533943822   -2.33006104054222
C         7.27213022533579   13.16284270946615   -4.10366353991136
H         6.42645629599828   13.68629629321056   -4.54890531942548
H         7.62757270513833   12.42523815447931   -4.81936557603772
H         8.06745375354311   13.88547389923429   -3.92964089123439
C         8.79847713404566   10.37533024013222   -3.07798900896996
H         9.07740821090747   10.88905843674626   -4.00761342281155
C         7.72201998350634    9.34702510937459   -3.40353785634498
H         8.08583004487469    8.67791983427379   -4.18346786528950
H         6.80854074125461    9.81262996173908   -3.76561352784558
H         7.48588961363178    8.74518704323720   -2.53103142094573
C        10.04852228460753    9.69493687490687   -2.52572288522464
H         9.84133944410900    9.26020437248041   -1.55147296701998
H        10.85529943409633   10.41715881441324   -2.41406501706273
H        10.38448173175809    8.90439433277592   -3.19550600375707

