83
CSD_code = EGOMUI | q = 1 | S = 0 | Stoichiometry = C41H38NP2Ru(1+) | MND = 8
Ru        0.17319154657853    7.36846557600759   13.34613642992653
P         2.35428100063538    6.49783335723752   13.56392519613344
P        -1.64374024066563    8.21024317951765   12.12826515377312
N         1.10005971932448    8.95305848268847   12.80581063380645
C         0.35966771980870    6.42195931799059   11.46719992487569
C         1.59435183553707    5.92771662503291   11.03159608382205
C         1.69877626790419    5.16464371374467    9.87529099294759
H         2.66490724996929    4.78795453976606    9.57140777965632
C         0.57873712028921    4.89468753353675    9.11143540402812
H         0.65971603362172    4.29407341136007    8.21930652165820
C        -0.63878093670011    5.43001401354252    9.48568665980397
H        -1.51427984352159    5.26503291009106    8.87479050701389
C        -0.74684524747733    6.19114853183722   10.64288820652549
C         2.83367018297139    6.28966825992986   11.80192229699898
H         3.21058173354889    7.26367739036696   11.45878783675797
H         3.63301610174616    5.55208696282136   11.68725551807766
C        -2.06397953686428    6.83656420133759   10.98457888457933
H        -2.73617257444629    6.11755396781692   11.46210205708130
H        -2.56339030586808    7.22936535668872   10.09192864155211
C         3.78226629745482    7.44357197532186   14.19404621291710
C         3.66364749487748    8.71932360804598   14.73140647510490
H         2.69036961518814    9.18456529333705   14.81630273536183
C         4.78924066709593    9.40217081292261   15.16178852954798
H         4.68768183930529   10.38997253276029   15.58676816707868
C         6.03986851836534    8.81884508557966   15.05596485413050
H         6.91492547468445    9.35094441884651   15.39566076764034
C         6.16587944842325    7.54818052189819   14.51552298583022
H         7.13972798309451    7.09040474275221   14.43190209080372
C         5.04565303139407    6.86296744064721   14.08690475083208
H         5.14531763698754    5.86723829715067   13.67768339025051
C         2.67517308757435    4.85676842007928   14.26897262699224
C         3.17842753225755    4.73045642100202   15.56090925082376
H         3.41401478181743    5.61659753508137   16.13558781623459
C         3.39175308159955    3.47470172459267   16.09950510712942
H         3.79042455986841    3.37997333792937   17.09827719297011
C         3.09544581593343    2.34129195802070   15.35919236955617
H         3.26485748812434    1.36270426910503   15.78106826678566
C         2.58027763999363    2.46350394027737   14.07836560955841
H         2.34623123154031    1.58059117555307   13.50283999886116
C         2.36357004729547    3.71609433380355   13.53331464709011
H         1.95162349447697    3.81283757326661   12.53716181928429
C        -1.29239150999496    9.52313449822258   10.90256568508903
C        -0.17536837845115    9.37039431581590   10.08050735757500
H         0.47121609493675    8.51209272951284   10.20808145753475
C         0.10012733195694   10.29940941996241    9.09486779964876
H         0.96100796652024   10.16341487054340    8.45699019895894
C        -0.72853538884575   11.39649067108756    8.91884244737567
H        -0.51150342894671   12.12293745179895    8.15086710283869
C        -1.84272104557999   11.54949091876656    9.72541967886526
H        -2.50063080631750   12.39380770593114    9.58543667338045
C        -2.12906443596875   10.61800198114633   10.70938222777438
H        -3.01259841153419   10.74678763904049   11.31630347014026
C        -3.19546483367394    8.77448707026482   12.88037359022857
C        -4.40550411092476    8.10173110612659   12.76089597032618
H        -4.48353501252153    7.20827406417155   12.15987373869421
C        -5.53096045652217    8.58481579346057   13.40818371332066
H        -6.46917214711629    8.06007860538078   13.30983474392039
C        -5.45820020644465    9.73391714157508   14.17682506073801
H        -6.33790744592401   10.10300513691744   14.68086271956486
C        -4.25528384103759   10.41449066009304   14.29456110352348
H        -4.19856308291956   11.31574496073233   14.88636309204249
C        -3.13088614990769    9.93618156110968   13.65160112115566
H        -2.18778409306512   10.46519588165907   13.72585340006725
C         0.39900659305264    7.51145599669448   15.57001902008497
H         1.27714749681847    7.97086211109287   16.00409734373441
C        -0.76581627178249    8.15904190441553   15.20842828273461
H        -0.95054694941633    9.22180693506483   15.29513731756941
C        -1.87692680106731    7.11285552858127   15.30976306147158
H        -2.89658620004612    7.48753887440906   15.35491419104927
C        -1.53211056547855    6.19965619050389   14.13606402019632
H        -2.29689177868551    5.78158689039290   13.49323736906854
C        -0.35164514600513    5.55283583360884   14.47623840063294
H        -0.05411941871747    4.57488332685843   14.11343270388278
C         0.01467432141717    6.06480814916066   15.87018919241192
H         0.73662379753847    5.47447854669356   16.42885031776633
C        -1.37771335907159    6.26326051205190   16.48900050429614
H        -1.35474750387403    6.80843331842115   17.43216468784577
H        -1.93062894653107    5.33248835029652   16.61205539392992
C         1.57461332604984    9.94856280224991   12.46175818314753
C         2.18754639124442   11.16848533457302   12.03571893845763
H         2.99043701962248   11.44099100622746   12.72149032621303
H         2.59836751258682   11.04554923134437   11.03346783723553
H         1.44459528099106   11.96598222477594   12.01632016164366

