78
CSD_code = EGOMIW | q = 0 | S = 0 | Stoichiometry = C39H35ClP2Ru | MND = 8
Ru        7.37234169932221    7.24365888741404    4.37323012443699
P         8.89327518984447    7.41005358378426    2.62296151872720
P         5.20055343063401    7.15001155291610    5.13632193221625
Cl        6.80231711038298    9.32091513746645    3.35361984736267
C         6.36114351236238    6.09420273493417    2.93564915976630
C         6.78480461820071    6.06766188548799    1.59998999964216
C         6.19437374721141    5.22122171913200    0.67029602054591
H         6.55378810588111    5.21773220119216   -0.35008812105173
C         5.14635443294454    4.39755752748520    1.03714751579527
H         4.69564073407079    3.73298473219510    0.31510541325037
C         4.65512146464678    4.46634782922747    2.32766149169904
H         3.79932719288475    3.87037209958775    2.61457425535247
C         5.24523012163500    5.30925592600562    3.25853935926970
C         7.84456407635557    7.03880276289174    1.16177422403092
H         7.37463545588209    7.99041152788003    0.87787559857421
H         8.43604126611821    6.67287934940579    0.31702432274368
C         4.63785018777030    5.47146677003403    4.62717689534134
H         5.00196272976759    4.70295955010590    5.31440816454194
H         3.54397447905146    5.42025998865494    4.59573946186592
C         7.57029031489975    5.80193868720088    5.98358051815092
H         6.90103166732332    4.96914560223427    6.16279338318605
C         7.93938302912435    6.77450533850007    7.10120968319429
H         7.31476236542754    6.75779197557471    7.99250491777637
C         7.98685370991320    8.08960229749858    6.32283227263879
H         7.52266811055565    9.00263287185606    6.67292998973957
C         9.10886937788711    8.01539711067562    5.51876010733024
H         9.68338330696168    8.85673777840739    5.15276569072017
C         9.73709486138337    6.64870166973834    5.78089160347051
H        10.76613770522159    6.51342127495112    5.45400736018316
C         8.69388954357318    5.72790125919146    5.14751040878101
H         8.97091113719990    4.84831785568142    4.57683106173441
C         9.43501887214971    6.47321266514340    7.27631819947282
H         9.63009235540966    5.46314517226516    7.63932686413539
H         9.94914383736866    7.19984007642856    7.90699744343545
C         9.82634529280558    8.86163311688703    2.01822959725760
C         9.80920274858749   10.10389627405045    2.63724060748751
H         9.19859687382381   10.26433694846956    3.51276444741155
C        10.53918104676296   11.15567726684329    2.10911351313073
H        10.51601856548041   12.11897780816214    2.59734079847181
C        11.28928872853569   10.97857042768586    0.96037632774944
H        11.85629791175360   11.80094323464155    0.54910544664376
C        11.30686260157789    9.74213817464308    0.33399112417919
H        11.88733376946160    9.59874706352697   -0.56612679782270
C        10.58261980836414    8.69011862377880    0.85901362533843
H        10.61082606983010    7.72388139038964    0.37335235654064
C        10.19769044986054    6.14179356618088    2.47818556365741
C        11.50794496811349    6.43088021551736    2.84717084387822
H        11.76417335423811    7.43362894146047    3.16432559694567
C        12.48095061819011    5.44980743671897    2.79517535240444
H        13.49745418033352    5.68433227234290    3.07704109638801
C        12.15365813480643    4.16791476594377    2.38412178865837
H        12.91461317251119    3.40250292184485    2.34264241428721
C        10.84778936667687    3.86891960305675    2.03098997292352
H        10.58836885963941    2.86827116757871    1.71618497440931
C         9.87193789842267    4.84765852764506    2.08359653983872
H         8.84900878365909    4.60951444517801    1.82384115451893
C         4.77027991523928    7.33534830055398    6.89305991373827
C         4.41555210279382    6.28526527124768    7.73004922183879
H         4.31112008853117    5.28411367349845    7.33851847941736
C         4.18448716642989    6.51914979202974    9.07558592423980
H         3.90773229716615    5.69847810716414    9.72183330310851
C         4.30803845323931    7.79634652597541    9.59490279198170
H         4.13192178029597    7.97138660805724   10.64599971999825
C         4.65572155832441    8.85127009949532    8.76406592120875
H         4.74570331919489    9.84986016907176    9.16648253341753
C         4.88731452355060    8.62113373585385    7.42260959987810
H         5.14830566857476    9.43555886069468    6.75722643098385
C         3.88002586771056    8.12006556310285    4.32443385739282
C         3.91718087640566    8.26215282562800    2.93941508572633
H         4.75328183276004    7.86725672259436    2.38137015222870
C         2.89618706302810    8.91700270233827    2.27705343214317
H         2.94063458378403    9.02633905863540    1.20350345793203
C         1.82507056150463    9.43598355183559    2.98507021172220
H         1.03138307321823    9.95512499010463    2.46786549065753
C         1.77472743355568    9.28489157786122    4.35977278988535
H         0.93860978402946    9.68013439816516    4.91884950892634
C         2.79216827488283    8.62711787298833    5.02857811201529
H         2.73086082298017    8.51262799942158    6.10121102919895

