177
CSD_code = EGONUL | q = 0 | S = 0 | Stoichiometry = C89H78N2O2P4RuSi | MND = 6
Ru       63.98464753101087    4.56773013659247    1.63595110327295
P        63.31896514156865    6.02687810487241    3.28295147329313
P        63.04522875371899    2.98043985358713    3.01460391250671
P        64.96536869189070    3.22777910923963    0.04414326121767
P        64.57513623645646    6.26763315307059    0.20803521753584
C        59.94555789911603    8.01014829163523    2.07353328512280
H        59.25073487653201    7.94671241652733    1.24880330537567
C        62.20519903507796    4.49121466291412    0.67470137624879
C        65.55153970045639    0.50738870715157    0.35043442901319
H        64.54240613139633    0.33452875348728    0.00228680621336
C        62.56785713272772    0.31128300585792    2.32167280290361
H        63.58719023973386    0.13401334889420    2.63611899676271
C        61.03782250542550    7.15971954850731    2.11275619323409
H        61.19391062623477    6.43617802798118    1.32444770278257
C        62.01979896526989    1.58680221839300    2.43620987051282
C        61.84494104720753    3.91525844648962    4.06002352558542
H        61.09032865293621    4.34555951160862    3.39022449758813
H        61.34262234884280    3.26680603965826    4.78395637213233
C        61.81497857145889   -0.72634147125621    1.80318058466013
H        62.24844580037750   -1.71247470978722    1.72007333570482
C        63.97575493617841    2.50833781570401   -1.31768171843456
C        61.17832624396100    4.37193600972028    0.03580692602440
C        61.93940742988306    7.22515553758879    3.16591705110598
C        65.75283941009705    4.43536857024279    2.58547964565200
C        62.64589421473913    5.03880066946380    4.70025520246668
H        63.47647205345393    4.62481417174008    5.28046916200679
H        62.03291672165044    5.67413393452185    5.34799355288437
C        60.70885044120385    1.80383656348327    2.01741540220461
H        60.27996632156768    2.79191339086199    2.07398409517246
C        62.78184476703156    1.89570258558320   -0.94657748589715
H        62.49424143254311    1.90360759612274    0.09382979003904
C        66.11094443300203    0.90862009484585    4.67743408398170
H        67.05087066630375    0.52256606076182    4.31099372855001
C        65.27471113485328    1.60186589350658    3.82293594993469
H        65.56327681506777    1.76560169626307    2.79531507630449
C        64.34168637221936    2.50823765908678   -2.65994646037784
H        65.26645039862929    2.95992549800265   -2.98712790224496
C        67.34304105729296    2.01769237861500    0.88615051848569
H        67.72961137556257    3.02108218487673    0.97544971886954
C        64.05955746684165    2.11499277702489    4.26871239040986
C        59.97289240101419    4.27761708314834   -0.69289206684576
C        65.27574691800748    5.51533524541226   -1.33610558854649
H        64.45690200434137    5.15638569618402   -1.96739077151748
H        65.86016256714467    6.25827447365363   -1.88868407972843
C        61.72782235342365    8.14679393693373    4.19085313232306
H        62.41895881230798    8.19669100592553    5.02209440734276
C        59.75055482756987    8.93549385038793    3.08270420548845
H        58.90292870638368    9.60442250884415    3.05102683454569
C        66.12276215803895    4.34362182073272   -0.86342777991534
H        66.86723410447790    4.70310819109378   -0.14249926221311
H        66.64278534919268    3.82291164481860   -1.67293763134045
C        62.33069477066915    1.31516021399601   -3.22416880067411
H        61.69261982732750    0.86158204545335   -3.96827043585497
C        63.02031720378391    8.58430605413889    0.13680155376433
H        63.70885062393083    8.95946726189802    0.88171097672981
C        64.60881721306535    7.04259644269781    4.07158204858612
C        61.26270095452637    7.62148733723473   -1.76839422299819
H        60.57085504374282    7.23639615435042   -2.50360950015695
C        59.96228580726064    0.76279699003740    1.49738832349181
H        58.94866637974385    0.94428674463148    1.17035441041657
C        62.34693735849862    6.85472843711479   -1.38330520654555
H        62.48467019148426    5.87464775409460   -1.81455546195299
C        63.51815971004127    1.91873535241722   -3.60375994851932
H        63.80874547916796    1.93011242351494   -4.64471495459576
C        66.56772483992206    7.22556462719902    5.45869411681552
H        67.26723752093891    6.77325931913171    6.14690448833677
C        57.59207361051454    4.07831703895222   -2.13543737216335
C        60.64380790994433    9.00090664922667    4.14210390509958
H        60.49011228401729    9.71878128301258    4.93509705431359
C        65.74590103217096    0.72768923127339    6.00118341290993
H        66.40196304270366    0.20329433802499    6.67960011788117
C        61.96525008398238    1.29927021393891   -1.88850663433526
H        61.04170928972120    0.83286007245369   -1.57820435589793
C        59.99178991874754    4.02224876348216   -2.06736457159533
H        60.94058681962763    3.89204894411900   -2.56901243840653
C        63.69311834997267    1.91530185319576    5.59606295623048
H        62.75260864129508    2.28462360345765    5.97744509228970
N        56.39263252315823    3.97007272474875   -2.86042672759367
C        65.51486527979266    6.47742431596408    4.96470110598553
H        65.40983349201178    5.44615765708898    5.26668356720485
C        60.51223303884068   -0.50376520735582    1.38834494792652
H        59.92843327704434   -1.31517870383662    0.97915157155179
C        66.81214693765378    7.32159101060841    1.52846528510753
H        66.68208362851612    6.49673649513621    2.21512360925375
C        64.78926313568736    8.36461472895360    3.67318623871966
H        64.09223873881892    8.80796565078824    2.97504543055418
C        63.24290141551931    7.33259872340355   -0.43094398621248
C        68.03376082654164    9.25437487516464    0.80586658476700
H        68.85617746324053    9.94377443719695    0.92911981876452
C        61.94104114681667    9.35241532658801   -0.25624396517611
H        61.78340533554690   10.32463996167213    0.18798284323120
C        53.14165613002466    2.56537220298719   -3.41003823356948
H        52.35463596380477    2.68487974384951   -4.13959198429440
C        66.78286256944001    4.27836248355237    3.21809264786536
C        66.08710088015935    8.54587455975524   -0.40592546838654
H        65.39403561588864    8.67959878950857   -1.22629307827679
C        55.33447215841262    3.14563278059049   -2.54633061486202
C        67.87215499957628    8.19894124558669    1.68482192668630
H        68.56757958667615    8.05448574942396    2.49875941831431
C        68.13052105275695    0.94553026074179    1.26284428310570
H        69.13293088200224    1.12067649564231    1.62582249812658
C        58.73842671906423    4.44172428212452   -0.05721955456558
H        58.71081756455170    4.65839107271598    1.00247272335252
C        65.83681987738485    9.11303368570614    4.17481270080063
H        65.96172829233555   10.13970693917809    3.86206147045194
C        65.90941251471284    7.49043476523394    0.48801955206652
C        54.78655646857921    4.28660867272454   -4.44563429678828
C        55.20514309459607    2.23189675326112   -1.50959094896226
H        55.99866389313219    2.08777973515544   -0.79136547743544
C        57.56240784103117    4.34695743617621   -0.76986529173284
H        56.61089860301348    4.49053348686667   -0.27773569495383
C        67.13901571516006    9.42509982004648   -0.24049249368282
H        67.26639975194075   10.24588099621066   -0.93179768720640
C        64.53753029311586    1.23132687798747    6.45383952543017
H        64.24799870828272    1.09064451459513    7.48536164107511
C        66.34505052723912   -0.56099708258017    0.72637667602107
H        65.95359236122995   -1.56609545760419    0.66467105067837
C        54.24246070717366    4.86847777625981   -5.58316065018164
H        53.25899290737126    4.58330576663943   -5.92580368220547
C        61.05741983859190    8.87104343886631   -1.20810177509859
H        60.20933119835073    9.46786822747417   -1.51005875631713
C        54.31097718359648    3.30796030987356   -3.50947158658179
C        67.63431255241073   -0.34541843736084    1.18470439591813
H        68.24946607506901   -1.18141139656140    1.48325091886746
C        56.07728013109391    4.66541330208724   -4.00710122142663
C        54.03326269684577    1.50524301959115   -1.43292851551890
H        53.90647135667782    0.78893079685147   -0.63406633549559
C        56.24426045752828    6.19877766635981   -5.80842375245314
H        56.79294986864178    6.95425910865540   -6.35206954148660
C        54.98176477228424    5.81799869643974   -6.25932360616342
H        54.57728831702924    6.28120099255991   -7.14721153634778
C        53.01128282742842    1.67237187934145   -2.36557941253477
H        52.10899524453308    1.08661666473194   -2.26941404110325
C        66.73072913639629    8.54371265685723    5.06676076782154
H        67.55405535334049    9.12591312424375    5.45365536217528
C        67.95545412082532    3.63446524743348    5.25417979900929
H        67.00789822531740    3.36191427522288    5.69706808462490
C        67.97394383084892    4.14065201485799    3.94479817501539
C        56.80740921074675    5.63491588047710   -4.68050878041803
H        57.78048772733186    5.94459731515714   -4.32906353102263
C        69.20878838583589    4.51187368856764    3.38897700802687
H        69.23452194251952    4.92224210094707    2.38788637823260
C        58.81623305070325    3.91763003207638   -2.77874421266505
H        58.83537824660154    3.69916781933877   -3.83705930264275
C        70.35887060730823    3.82692724167274    5.40795544481015
C        70.36717196588377    4.36555269708879    4.10731584619808
H        71.31214017185920    4.65619245487983    3.66860333400631
C        69.11706636166933    3.47311924729914    5.96413973156771
H        69.07722238515144    3.07797507563676    6.96633253439327
C        66.04534741153034    1.80777264191153    0.42409692469472
C        71.60522832381812    3.67667707399656    6.08736013291324
H        72.47148722783271    4.09336979549963    5.58246560005476
O        73.46614023235489    2.36366204574555    8.84151114659665
C        71.89305913759422    3.07266210556968    7.27390148340467
N        70.28139556653909    1.86222041654997    8.84196588008431
O        74.19801894816523    3.64894347483681    7.14048227104424
C        74.77632058759825    2.32184376046172    9.40843489613833
H        74.82897132925477    1.36278235368134    9.92585456376628
H        75.50963080198449    2.34882391172977    8.59694259404507
C        73.30566636290808    3.07763022225781    7.72437533787227
Si       76.73845245567675    3.45280436836787   11.16883766552785
C        74.99997846126493    3.47693208947470   10.36788357478708
H        74.86210204568087    4.40828370937387    9.81685834815664
H        74.22257295985435    3.44438243328737   11.13212171305797
C        76.79711410372518    4.83450719295963   12.48328477000370
H        76.60162522004474    5.80861509522088   12.04582056348298
H        76.06028486390392    4.67263268181284   13.26403168044215
H        77.77184768379314    4.87918659616169   12.95841913562204
C        77.04134894425269    1.76103374819960   12.00018019625611
H        77.11179200782620    0.96409700955814   11.26583216956177
H        77.96688580200170    1.76274823196956   12.56779438405523
H        76.23904717425160    1.50548272005559   12.68605097766712
C        78.06254802652957    3.76378179285404    9.83143497449425
H        78.09618474496345    2.95292179068438    9.10984173731634
H        77.86033423558247    4.67875216136249    9.28260398950701
H        79.05332827815508    3.85457695514567   10.26655682555501
C        70.98717421246657    2.41480928177157    8.12180457811320

