78
CSD_code = EGOYEE | q = 0 | S = 0 | Stoichiometry = C29H45BN2Zn | MND = 4
Zn        9.35540739431165    1.91128432940196    3.27785269134552
N        10.13698946491961    3.20305210113325    2.08096129256431
N         8.65287052858030    3.11874910929399    4.60446592177845
C         8.06593265300560    2.54490649511266    5.76129577397053
C         8.73093222596833    4.42747553579024    4.46040363116736
C         6.71674399702909    2.16986159070327    5.74149212162177
C         9.34363813791970    5.05246285193754    3.37558589903989
H         9.31885526405912    6.13287967529751    3.39701176531516
C        10.21905230957898    2.37598180661338   -0.21086880873242
C        10.01272848086956    4.50016202028979    2.28456726369051
C         8.85963637772194    2.30031700058065    6.88960768274409
C        12.25592939214854    2.48471971114735    1.11831614535671
C        12.97732826667640    2.81048739492488    2.40653240022341
H        12.25958268209060    3.24257667843910    3.11276090529342
C        10.87916870377402    2.70421475144679    0.97985969748430
C        12.95571972693765    1.94330146714348    0.04982054077574
H        14.01668160766751    1.76652548788385    0.14186173059450
C        10.95735281223443    1.84267028291875   -1.25758678166907
H        10.46416049680164    1.59163074815922   -2.18437438065338
C         6.94875622994572    1.32375220407818    7.98617028015679
H         6.51268399848221    0.85142448816208    8.85401309531854
C         5.85130708900240    2.41967422789769    4.52750732148250
H         6.47963345191582    2.83029190959006    3.72785970395234
C         8.28195779607353    1.68533122551524    7.99078754340377
H         8.88132778180394    1.48760255517680    8.86657515877832
C        10.32362288211518    2.67720900561150    6.91683923412588
H        10.57828618389093    3.17014118673687    5.97204844599229
C         8.15273350378476    5.35000581351922    5.50488900544521
H         7.62522013178766    4.79649678520945    6.27736919955765
H         7.46662420661918    6.05361071139651    5.03662440282421
H         8.95321459385507    5.92492954397600    5.96871559487335
C         6.17612586953101    1.56437476144612    6.86675819420867
H         5.13563514423212    1.27710373319312    6.86980493935270
C        10.61914012203448    5.48993312868328    1.32070658262545
H        11.38729691028394    6.07171550354222    1.82843589413536
H         9.85410511819639    6.18188792782084    0.97276955840467
H        11.06511647932571    4.99052589320938    0.46456810409604
C        12.31629947672936    1.62858022509798   -1.13353319850343
H        12.87668886902087    1.21318952223834   -1.95804774540285
C        13.54478714060627    1.53661685755219    3.03731929176851
H        12.75113343509562    0.80961963844191    3.19821469873455
H        14.00537922413367    1.76576418893255    3.99627283525635
H        14.29692333405258    1.08625349917443    2.39419231631703
C        14.08647786308367    3.83866601996662    2.17235600454566
H        14.86313973787830    3.43289005369986    1.52885441809601
H        14.54150154015381    4.12069428283250    3.11967302935024
H        13.68625422181421    4.73367791298753    1.70107610394330
C        11.19451716534686    1.42463114516555    7.04052736200393
H        11.01027332038124    0.91509488105559    7.98318358794912
H        12.24797074420644    1.69385338485444    6.99562666299033
H        10.97794565301411    0.73296531913592    6.22872488240046
C        10.61995126070772    3.65640034167357    8.05511972552892
H         9.97912273166455    4.53253030210368    7.98377208437561
H        11.65720241848684    3.98187111542631    8.00841577364997
H        10.45280633315367    3.18989694331350    9.02278327173353
C         8.73214250401104    2.59733260281624   -0.36974804366239
H         8.32706120267346    2.95347939976009    0.58511096967800
C         8.45553202193770    3.66657087873876   -1.42974760337794
H         8.93967951891229    4.60387608171885   -1.16471772633657
H         7.38525353657503    3.84306895018267   -1.51441499259133
H         8.82926058814103    3.35162342977401   -2.40123713998973
C         5.23633225317618    1.11556381231879    4.01547702557265
H         6.01479419897557    0.37950808211854    3.82763928579724
H         4.69847705377796    1.29627611288749    3.08687895685591
H         4.53743083617322    0.70196404634719    4.73815455746692
C         4.75964343327493    3.44470543431332    4.84541687701136
H         4.10120694603153    3.07558484839884    5.62829664705773
H         4.16127910506386    3.64315291863336    3.95864185172987
H         5.19896946131386    4.38128715995495    5.18156450194042
C         8.01927358907091    1.28993080337325   -0.72154473972616
H         8.32250780002508    0.93018906394011   -1.70157853192335
H         6.94207212879247    1.44400022604289   -0.73380747112913
H         8.25155110050310    0.52356852010624    0.01454932321983
B         9.28525613048682   -0.21820673536787    3.16293094009891
H        10.21179470701707    0.48508454679011    3.73726883272846
H         8.40757430646323    0.59334153222277    2.67061093276042
H         8.75893453422553   -0.86147049481244    3.99410204488193
H         9.78140055867387   -0.80129649689041    2.27101464655923

