96
CSD_code = EGOZUV | q = 0 | S = 0 | Stoichiometry = C35H55O2ScSi3 | MND = 5
Sc       12.25239883111555    6.05172378804345    6.24361000761987
Si       11.13499926752292    8.14686968866070    8.97708686375201
Si       10.59293173579765    5.88878628347782    3.02271781779921
Si       15.25902198097023    3.87854902892352    6.67289161078819
O        13.78107008596132    7.97671821866293    5.71320831844994
O        10.75470283386593    4.08551677574369    6.79295419624905
C        12.17087324230068    6.66445866990820    8.47297027058058
H        11.80833461419916    5.80281141871138    9.06025363278505
H        13.20446796688270    6.83567801088119    8.82232615704674
C        11.11970401020000    8.64157718734744   10.83360719616357
H        10.61889100174530    7.88421182296118   11.42950005474850
H        10.60795160128196    9.58453896486897   11.00404427074038
H        12.12797366232900    8.74019166250955   11.22465209690091
C         9.30158444404614    7.85130888023166    8.49421652108404
H         9.22704785704546    7.45699897910755    7.48227694498227
H         8.71732274166688    8.76476250027526    8.54284119077417
H         8.83657790216529    7.13320752115399    9.16303011764597
C        11.74712782908795    9.67941298100049    8.01579520015506
C        12.73649559329931   10.51523301316805    8.52307465582906
H        13.14893242769924   10.31207718174212    9.50139250396964
C        13.19920553177692   11.60731348378916    7.80869457176567
H        13.96781616215670   12.24309274482552    8.22737233726443
C        12.67309778087039   11.88927167206019    6.55939466562055
H        13.02639982465561   12.74440435232683    5.99962046139802
C        11.68663138075209   11.06985297570791    6.03549239047408
H        11.26171174328210   11.29189032614876    5.06513532715623
C        11.23708440496729    9.97729960358202    6.75705818501408
H        10.46119539499072    9.34913474370984    6.34206843343970
C        10.71792034525652    6.78446534022964    4.67008574419841
H         9.71176180545096    6.76964471733167    5.12626453489329
H        10.90973338905076    7.84647127056119    4.44036929921161
C         9.26379074910234    6.51343643063583    1.78197237054941
H         8.28103039134210    6.55228773902863    2.24234683903970
H         9.18839126652229    5.87535290251312    0.90593666728573
H         9.49638427230234    7.51706786652730    1.43805605114138
C        12.26277073657581    5.98815020972747    2.08439795017697
H        12.42692543722596    6.98880216554876    1.69533127782647
H        12.29198710213769    5.30568969928343    1.24090611162987
H        13.09550966936249    5.74596022132812    2.74140310957300
C        10.18788794340737    4.04683071097563    3.32661414333915
C         8.88407786309760    3.63157949409203    3.57625389627931
H         8.08780412265918    4.36319141268981    3.57383902758206
C         8.57828043107670    2.30188071089735    3.80970705184761
H         7.55344858391494    2.00440131321414    3.98957056872732
C         9.58376011071747    1.34960293122342    3.80294899033950
H         9.35093168861429    0.30938080110605    3.98419967564017
C        10.88961661610283    1.74042390560295    3.55655705377886
H        11.68027116328802    1.00193877241062    3.54398815727999
C        11.18019199576204    3.07319319795008    3.31933451010346
H        12.19936280578651    3.36268301416183    3.10913048995362
C        13.90578745007499    4.59065378704619    5.58437318682994
H        13.33233802266949    3.73358665004650    5.18878269597581
H        14.40874246604185    5.03249952203264    4.70520652726074
C        14.64772767518334    3.55909305515883    8.46876179246287
H        13.87893732727024    4.27802270718277    8.74867891884368
H        15.45971641822829    3.65271680725653    9.18322570333709
H        14.23519655801868    2.56031769558772    8.58252599582865
C        16.77904331384371    5.04704964581931    6.80776286944276
H        16.97200916734012    5.56101550520957    5.87113756976910
H        17.67638144863089    4.49172705211649    7.06310651004753
H        16.63076906776322    5.79822800342181    7.57824564850816
C        15.94951582412778    2.19542008725045    6.07391368819670
C        16.76943843048170    1.41891258265346    6.88834781602716
H        17.02551583040207    1.77932926991011    7.87483486956396
C        17.26192153947017    0.19819286208494    6.46442373403441
H        17.89751494025490   -0.38591871313184    7.11612636104740
C        16.94101408576324   -0.27854481918322    5.20455587555368
H        17.32268592322142   -1.23298808971742    4.87003007290103
C        16.12764314914279    0.47648377025796    4.37749170311504
H        15.87285510460142    0.11123672866885    3.39179355048767
C        15.64185535881661    1.69661524969700    4.81259340246134
H        15.00874751502106    2.27785752839318    4.15740131468867
C        14.81395954495746    8.44072178336613    6.60170925370537
H        15.42204563602288    7.57242227887175    6.87294620103002
H        14.34691634722899    8.85650058461411    7.49920644125397
C        15.62964110635557    9.49038133714419    5.84323546881176
H        16.68875996644666    9.43501145536992    6.08231644981999
H        15.26372741791722   10.49031126620007    6.07798833413965
C        15.32691163461664    9.14996452490020    4.38670658309144
H        15.46590093705397    9.99091837650926    3.71231021084254
H        15.94329407551099    8.31459275013814    4.05341442485770
C        13.87021036711993    8.71886381260783    4.49297702592346
H        13.21472415868860    9.59757137865142    4.55634261941470
H        13.53683384093331    8.07032028839478    3.68213081682562
C        11.17553517304951    2.73506534976767    7.02297548112220
H        12.18396337957805    2.76619971565145    7.43548571462879
H        11.18497445783034    2.19210562768657    6.06910416828783
C        10.13622859996423    2.14031205315489    7.96391193472672
H        10.12609827795819    1.05388285575116    7.93828023632336
H        10.31591552098890    2.47497048713929    8.98607021228662
C         8.85869903164217    2.76552079063110    7.41100124516652
H         8.05407666308280    2.81160830972317    8.14082040402849
H         8.51858791991939    2.20622228779150    6.53923231002831
C         9.33255531245764    4.15764332338876    6.98799810850820
H         8.86524156046229    4.48154879989164    6.05360108187707
H         9.14425211248248    4.90350636834431    7.76751594639573

