115
CSD_code = EGUBEN | q = 0 | S = 0 | Stoichiometry = C45H64NO2Si2Y | MND = 5
Y         8.61921023859620    2.72029105126588    4.95514502510241
Si        6.33819375306708    4.33315948019026    7.11581014184625
Si        7.64443910912587    0.74670895517263    2.08637629410485
O         8.99260405003567    0.87603270808127    6.09243843945463
O         9.05468424217170    5.07603668697070    3.56835884994688
N        11.07755064457930    2.36052200569732    4.91278150266409
C        11.69377996816317    1.25088977349779    5.16938267000707
H        12.78629053684739    1.23826509359919    5.05074316678001
C         9.79928661611693   -0.12425614524136    6.08542934335863
C        11.14796514716863    0.01560740066902    5.61616014542156
C        12.02011253756800   -1.09008852023666    5.64262762575105
H        13.03386821770152   -0.96129998490925    5.28665370453251
C        11.59519694017670   -2.30637554589171    6.09128036013307
H        12.25987341497088   -3.15690011925117    6.09697816518695
C        10.28404397673354   -2.44994095612265    6.56013889209912
H         9.99174718890739   -3.42501976940121    6.91506527629720
C         9.38843378804540   -1.40972342115691    6.58425239922351
C         7.97100973185971   -1.57748662628216    7.12086283618523
C         6.96006542957236   -1.28619512995078    6.00231341737484
H         5.94510899318647   -1.38769869815656    6.38209471649968
H         7.09359539724215   -1.98841188000896    5.18081681042980
H         7.09011925518372   -0.27492421147255    5.62193803968965
C         7.69773215509648   -2.99395477453235    7.63937102118677
H         6.67905556976451   -3.04315149045485    8.01924569561767
H         8.37117745307528   -3.25298638034290    8.45327632300394
H         7.79388704033241   -3.73194050593575    6.84603857615151
C         7.75498804513922   -0.60192403078906    8.28706285407033
H         6.74746931403554   -0.71178641419248    8.68345086244369
H         7.88919168812060    0.42415281952911    7.95552127371341
H         8.46643885863948   -0.80898657599063    9.08455129139054
C        11.91259424867977    3.47203616291875    4.62767109092332
C        12.46058339309711    4.19628701370443    5.69594010503206
C        13.33041945579504    5.24036032729919    5.41549388700381
H        13.77682959594194    5.79668944818920    6.22491488052080
C        13.65112598870394    5.56584356421416    4.11177370105999
H        14.34745803787350    6.36619322213754    3.90904344357992
C        13.07449125775203    4.87003417399404    3.06522369371954
H        13.32665588164636    5.14126301967702    2.05235128194538
C        12.19112031399913    3.82500916846849    3.30065577626856
C        12.11896053460794    3.84270920208036    7.12714335683898
H        11.23379818206596    3.19331084710204    7.12217278622786
C        11.77825230689654    5.08434490150850    7.95417580358209
H        11.36880663137184    4.78395348295173    8.91592541165226
H        11.03750469174305    5.69404174704223    7.44152375177937
H        12.65989653638287    5.69301437844985    8.13952698301788
C        13.27517407463234    3.07627854636511    7.77583806188625
H        13.03891276342248    2.84794369437883    8.81278715458546
H        14.18744413793997    3.66923020374559    7.74990126664690
H        13.45830323340998    2.13993001974087    7.25387866399949
C        11.54751726899334    3.07030611341879    2.15830765995873
H        10.56096356007301    2.71376864473687    2.49987627397259
C        12.39579760645996    1.85422239480935    1.77386617491349
H        11.94717963811413    1.34590341085693    0.92366003481502
H        12.46720081517464    1.14927234681753    2.59903574636885
H        13.40191956195615    2.16878721063186    1.50156899006802
C        11.32375254981990    3.94959119373648    0.92747752057900
H        10.64719411036044    3.45030394417851    0.23909602542810
H        12.25805592657192    4.13433728283833    0.40177794615497
H        10.88724557739378    4.90405934221851    1.20966135972687
C         9.77007573475465    6.23629872351055    4.00417938156785
H        10.79340668064104    6.19868669001865    3.60751192437449
H         9.81620439472817    6.22102996067090    5.09477487743840
C         9.01365563615699    7.43549893927039    3.44683158974320
H         9.64534097833326    8.31535908367818    3.35279040222448
H         8.15769870510515    7.66589550536212    4.08037202388900
C         8.53676656776514    6.88749569517729    2.10523932136821
H         7.66504620556007    7.40983503786859    1.71964968270299
H         9.33721728894226    6.94029227373409    1.36601490043840
C         8.21652981210382    5.43607861069102    2.45636409845506
H         7.17160064484363    5.33721923498199    2.77082241106672
H         8.41312414343961    4.74356119565126    1.63283178846603
C         8.17600379513863    4.07329916987547    6.83633837424303
H         8.60744432843321    3.56448080447550    7.70817974013060
H         8.68038761278746    5.04339257799793    6.76078803994436
C         5.47780433620683    2.63188998002695    7.28334363125616
H         4.40386612877401    2.69798471092323    7.13933869213253
H         5.64727566199705    2.21863545068494    8.27228865015693
H         5.87787197945500    1.92228375717915    6.55982788674514
C         5.80689823864544    5.38371893545472    8.63259134026039
H         4.73350472789573    5.54674857840902    8.65496123043769
H         6.28533936391157    6.35800500870078    8.62684536730865
H         6.08511327996212    4.89234468213008    9.55966611087978
C         5.67374930253101    5.24093941983028    5.57066782445558
C         5.89398361197487    6.60352813545101    5.39864513912697
H         6.42746272926095    7.14979450646083    6.16410202263810
C         5.43399632532767    7.27682634055347    4.28016613722267
H         5.60476541312345    8.34026223327327    4.17521347405604
C         4.74435079053984    6.58994430713302    3.29484581737173
H         4.38258435631069    7.11060906384893    2.41923960282830
C         4.51339025791006    5.23268863480488    3.44584708153768
H         3.96885459336154    4.69114209965803    2.68433640090399
C         4.97188578450111    4.57205365480329    4.57334911656277
H         4.76354679764558    3.51867047705616    4.68975688513748
C         7.03476408737807    1.96990400816664    3.38103819673678
H         6.24079238323722    1.46539264950093    3.94857185167080
H         6.54145111227832    2.80684519714818    2.87527867233625
C         6.30746614806668   -0.49826294215440    1.49044191922892
H         6.69662445699903   -1.17866889005871    0.73880449077762
H         5.45835819727743    0.01895009977167    1.05420337984914
H         5.93818197478222   -1.09662947721642    2.31787565215433
C         9.10777343513489   -0.30749373931686    2.73089024530835
H         9.38638705677302   -1.08658515867830    2.02725830038909
H         8.83853033244210   -0.80172565142120    3.65924105093928
H         9.99340306939332    0.29345515384887    2.92497235549867
C         8.20563745398879    1.63863879769475    0.49195410686991
C         7.54550714435919    2.77365813591866    0.03389341754261
H         6.72949276186680    3.17990268826929    0.61442905555449
C         7.89750627973168    3.38695377244251   -1.15589682773531
H         7.36891562082197    4.27058487427470   -1.48652848699905
C         8.92086852619228    2.86393639664836   -1.92805132663309
H         9.19631449556744    3.33547072356409   -2.86055499796215
C         9.58535899503064    1.72788208702529   -1.49688379093105
H        10.38232427742985    1.30944971560783   -2.09636293697345
C         9.22892868745630    1.12941903434051   -0.30071443585661
H         9.75389011420500    0.24238924216914    0.02208458940443

