39
CSD_code = EGUCOZ | q = 0 | S = 0 | Stoichiometry = C14H18Cl2N2O2Pd | MND = 4
Pd        2.27539720831435    9.81640783999886    6.06681792138282
Cl        3.02174711095794    9.95945339932218    3.91674260009836
Cl        1.52118729285612    9.66946243575329    8.22635794180216
N         3.31387619906109    8.20798994748117    6.34168166693063
N         1.23003431335480   11.42657525826507    5.83233040298372
O         6.89508477623650    4.93475251841306    7.22692210882377
H         7.37362068579179    4.15919645074793    7.53848229101725
O        -2.18170838115630   14.79176098080638    4.65776701384071
H        -2.77536283087350   15.54878605283216    4.69690160906250
C         5.51532619371434    4.64529462529969    7.22136638574569
H         5.29621852549403    3.87977601283727    6.45720551782207
C         4.75735120468113    5.90145249868755    6.87657757319086
C         5.29789091517036    7.15841563218951    7.12156016762784
H         6.29572136548159    7.24303393992440    7.51879600193071
C         4.54686783458863    8.28328152706835    6.83885938057444
H         4.93533238010632    9.28589480552791    7.01770680039474
C         2.78709426849908    7.01015578518733    6.09280426810122
H         1.77963185361785    7.00193361600157    5.67757845397746
C         3.47344552151766    5.83803338578782    6.34350192536135
H         3.01354344526736    4.88638657660780    6.12602072769584
C         5.04091117473286    4.13405467955758    8.58889067537684
H         5.54701129172008    3.20351721615608    8.84051118341988
H         3.96944370124245    3.95662351885730    8.57529714953994
H         5.26462513934760    4.87500741983364    9.35303780725157
C        -1.14750134241734   14.97722949636603    5.59736277901721
H        -0.51035651405286   15.82486388947835    5.29075879247995
C        -0.30085773894974   13.73113193067620    5.64209201153209
C        -0.81011460599371   12.49784081991608    5.25295769083483
H        -1.81275476491780   12.43234956998682    4.86436165860022
C        -0.01376022403400   11.37342745707042    5.36062484423456
H        -0.37618582120365   10.38959929729512    5.06347748442289
C         1.73445968831471   12.60382947715286    6.19951390079693
H         2.75867209110894   12.59591571877988    6.57196483703980
C         1.00620535121483   13.77427039025875    6.11823277167495
H         1.45126401033277   14.70893442661033    6.42287965092806
C        -1.70373528210221   15.25469482948384    7.00106654479981
H        -2.28663847819267   16.17432664812850    7.00158481390602
H        -0.89262230980587   15.35432507017952    7.71644373968796
H        -2.34426524902592   14.43121485547382    7.30856090609208

