39
CSD_code = EGUCUF | q = 0 | S = 0 | Stoichiometry = C14H18Br2N2O2Pd | MND = 4
Pd        2.21634181589953    9.83707667188172    6.02258174399689
Br        3.31646779234984   10.23921176426011    3.89382813782708
Br        1.13356422365974    9.44528722184536    8.17167774300199
O         6.92546691219332    5.00448210589096    7.07300705937650
H         7.42103470942434    4.23313060356921    7.36716223844321
O        -2.39393271592402   14.65483828136140    4.57614624393891
H        -2.99005315150572   15.41093415016405    4.58397881524744
N         3.29013808599081    8.23773467521884    6.28912455467062
N         1.13212426672318   11.43289703929933    5.77575832120775
C         2.75123155176470    7.03453635112252    6.10426586145273
H         1.71613873348415    7.01235493084938    5.76350296885124
C         3.45568388393064    5.87077826552017    6.33635026318907
H         2.98459840139362    4.91467982041090    6.16966362306293
C         4.76977054140577    5.95047522562832    6.78778510585453
C         5.32120457980729    7.21342219133707    6.96802985886120
H         6.34103413964041    7.31142064354666    7.30036499205866
C         4.55125808515904    8.32903449417239    6.70280953396581
H         4.95110465256345    9.33552462094664    6.82425592678438
C         5.54937961778573    4.70319605963683    7.11316803100467
H         5.31149383043522    3.93363408743342    6.35863858067516
C         5.12347872757355    4.19223193904778    8.49679728649595
H         5.64430591072227    3.26594839716335    8.73284414138727
H         4.05341288467563    4.00721299452410    8.52010340104743
H         5.36798864515639    4.93608325445864    9.25177057159804
C        -0.15066257942648   11.33001510835754    5.43716539602968
H        -0.53469372227560   10.32108790130121    5.28777584946602
C        -0.96456694399315   12.43606995750945    5.29192071570784
H        -1.99844200853128   12.32864669435081    5.00964652018873
C        -0.43234446000186   13.70227946378501    5.50514853042049
C         0.91241837349721   13.79480842820311    5.85068181331568
H         1.37640364610366   14.75443520505662    6.01711493264457
C         1.65787921486742   12.63964866270331    5.97411502112004
H         2.71554262323173   12.67245292326003    6.23460723412027
C        -1.29253391544291   14.93525604248798    5.40975357012120
H        -0.69057700177010   15.75134682073465    4.97445916876735
C        -1.74108163018447   15.34436090224588    6.81978488693284
H        -2.33298691133701   16.25690992603555    6.77661488773569
H        -0.87816780487785   15.51759104463140    7.45645243200255
H        -2.34612300416967   14.55216513004771    7.25504403742742

