39
CSD_code = EGUDAM | q = 0 | S = 0 | Stoichiometry = C14H18I2N2O2Pd | MND = 4
Pd        2.14834342924643   10.04728160699323    6.22743100636411
I         2.91953007036614   10.11201386624769    3.73762955460038
I         1.37144408800901    9.97807466866655    8.71968682055574
O         6.89039881806890    5.26448581296591    7.26794376549025
H         7.40021344622353    4.49627724634080    7.54548302917998
O        -2.40042544089773   14.86921438168680    4.63905562357138
H        -2.98811033626431   15.63169016530766    4.62064896749550
N         3.21955857966955    8.45354827175401    6.52341718617362
N         1.07584913838493   11.64229802033600    5.94390669630396
C         2.69181122575911    7.24829327820760    6.33154197603381
H         1.65894327779590    7.21988635382882    5.98089506609399
C         3.40728917308293    6.09062756300478    6.56039660073553
H         2.94664983291185    5.13039392834205    6.38826918786603
C         4.72136839241792    6.18322753948469    7.00953494871964
C         5.25947520111009    7.45082572153591    7.19944927083883
H         6.27798372749750    7.55799890196040    7.53297736021517
C         4.47643771215760    8.55866387942134    6.94234508142840
H         4.86048530503995    9.57094036622489    7.07821667532862
C         5.51914698239291    4.94388887228724    7.31987013247348
H         5.28382604790975    4.17647725718315    6.56241065467767
C         5.11386502994476    4.41816781066238    8.70414766695271
H         5.65494516509536    3.50130265370758    8.93100380982551
H         4.04794997426882    4.21104561070912    8.73463613071358
H         5.34951835353539    5.16243318610811    9.46159287229456
C        -0.19492807742290   11.54230234644957    5.56806730915868
H        -0.57575027480084   10.53279910947654    5.40584126449716
C        -0.99857379137439   12.65181802558260    5.39553186006888
H        -2.02481137694762   12.54919861558182    5.08506013641760
C        -0.46324913303120   13.91576008618605    5.61524178972719
C         0.87223304520095   14.00363925958516    5.99711064624681
H         1.33745635933431   14.96150422739754    6.17011480876596
C         1.60478359056191   12.84441763670417    6.15174557383061
H         2.65368720638319   12.86903668165651    6.45171982629169
C        -1.31178542618837   15.15360171182239    5.48740639985049
H        -0.69541894779571   15.95837449198847    5.05104260546208
C        -1.78126271488090   15.58689254680809    6.88341143163233
H        -2.36702939329445   16.50184523142835    6.81565268532725
H        -0.92861594914778   15.76551253074505    7.53235413257751
H        -2.39863231031873   14.80534053562123    7.32070944620579

