93
CSD_code = EGUDEQ | q = 0 | S = 0 | Stoichiometry = C48H36Br2N4O2Pd | MND = 4
Pd        7.52655840015905    2.40907034874735   -0.03126943734742
Br        8.12693958733554    0.05226551418897    0.02499477788451
Br        6.91972279639798    4.76505568519707   -0.08421564554623
N         2.67801686132927    1.10995196739737    4.68742312192462
O        -1.22223946500338    0.37000152353790    8.52515353521297
H        -1.24044551555498    1.10407216597282    9.15608555634239
O        16.12974372317994    4.65547066535111   -8.69135955446893
H        16.13880835671316    3.93572138351745   -9.33891853415749
N        12.30995693559495    3.81782584893414   -4.79056960299235
N         6.36968419014222    2.15327552734569    1.50301564002140
C         5.16287727742084    1.60362635840775    1.35069951909025
H         4.89501362713094    1.30054596202932    0.33811405482618
C         4.30012906606442    1.42198538806386    2.40748998099030
H         3.32781121000808    0.97905668874082    2.27018102231835
C         4.69570373136749    1.81772871627867    3.69066940606420
C         5.96498084626053    2.38623612061375    3.83067639139728
H         6.32070768926706    2.70885016644885    4.79696993891119
C         6.76315061038331    2.53728297249009    2.71663680118159
H         7.75441451775267    2.98572378480876    2.78543859460148
C         1.76652354166473    0.95686718235648    5.70345627604207
C         0.88377314730116   -0.12214861866255    5.61077020307113
H         0.99947354183810   -0.81369409097306    4.79097164044666
C        -0.08953469486011   -0.34464481067794    6.56830667744616
C        -0.21504019307935    0.55849847080279    7.63737969973032
C         0.64657182712917    1.66137056878963    7.72834953054154
C         1.62847376296309    1.84802455158937    6.76902545469228
H         2.27257127701208    2.71255640181845    6.83956474207514
C         0.51111170869136    2.63734384696158    8.82924893674489
C         0.39318162265134    3.99590216248278    8.54684960182492
H         0.38569169176852    4.32242814976974    7.51708887159310
C         0.27268184131697    4.91672345822182    9.57063508477145
H         0.17939530703337    5.96731932100263    9.33862357005600
C         0.27104322827387    4.49567055673240   10.89065551100230
H         0.17729980070263    5.21631998145033   11.68900478822888
C         0.39712876505473    3.14855239969119   11.18290406697700
H         0.40849949030993    2.81528264439739   12.21015008526202
C         0.51530553198076    2.22308761319373   10.16061795746071
H         0.64874440005136    1.17617961320025   10.39833772498653
C        -0.99472454017706   -1.50061160957482    6.44288049933094
C        -1.25393715401576   -2.33369131194201    7.52641725985932
H        -0.78957769691055   -2.13054718290104    8.47895922740874
C        -2.09088847912230   -3.42509952024975    7.38520037963591
H        -2.28164978360183   -4.06746732823485    8.23262412059740
C        -2.68296413815282   -3.69740690576296    6.16361040027790
H        -3.33907199997466   -4.54867306807702    6.05619246896165
C        -2.43093494597750   -2.87294828740428    5.07989950686144
H        -2.89222876755519   -3.07886512297484    4.12486195027041
C        -1.59034586363914   -1.78415670901947    5.21666968258200
H        -1.40494581812566   -1.13462256979597    4.37346691886210
N         8.68095282799118    2.66771163116628   -1.56784253307422
C         8.29911267364614    2.24859723583130   -2.77375699422194
H         7.32593821906024    1.76090588871301   -2.83210149106175
C         9.08777769095283    2.41127549017222   -3.89285197400070
H         8.74180571380959    2.05922815777052   -4.85237731748678
C        10.33421045385659    3.03135019503262   -3.76719829086924
C        10.71862510972988    3.46242964512417   -2.49216180191609
H        11.67349211566781    3.94485737979092   -2.36533887224157
C         9.86690052298831    3.26468208443661   -1.42914687002185
H        10.12655668626393    3.59459863517434   -0.42305291183879
C        11.19629750959882    3.21935231788632   -4.91598297411583
H        10.81258102332389    2.84061303480328   -5.87176729435912
C        13.20816720763316    3.98859360671005   -5.81587388646026
C        14.02240565468112    5.12300420542543   -5.77183552206634
H        13.88047727285963    5.82975728373997   -4.96934230239556
C        14.98751822255031    5.35828970787471   -6.73441727176861
C        15.16453764613321    4.42336430078710   -7.76806527461825
C        14.36359888902516    3.27332564275129   -7.81648808830114
C        13.39823150298813    3.06497462276244   -6.84512546269426
H        12.80717048397099    2.16115624592770   -6.87854661905724
C        14.54450498010634    2.27163829070410   -8.88795855311172
C        14.77001521732385    0.93652920776545   -8.56339485722387
H        14.82304159701959    0.64774757300830   -7.52372757853834
C        14.93753839344688   -0.00783338698678   -9.55884847130750
H        15.11424208268001   -1.03991654100440   -9.29462114631391
C        14.87959057624478    0.36620628470146  -10.89168677696962
H        15.01100144243282   -0.37260450527584  -11.66782241002653
C        14.64500508739060    1.68899092847020  -11.22529794382561
H        14.58605259983961    1.98456356643378  -12.26241812591736
C        14.47897138435889    2.63816913752498  -10.23163853988790
H        14.25965048337458    3.66309094550032  -10.50052492778212
C        15.81037147733257    6.57953256553345   -6.66522689278599
C        17.19543872771526    6.52532925939908   -6.78181675308976
H        17.68175542097720    5.57360289141492   -6.92913024710198
C        17.94953791267357    7.68111721874407   -6.69645859922621
H        19.02493754167768    7.62674203234435   -6.78428217649834
C        17.33263794532016    8.90474526020310   -6.49832183346253
H        17.92354734416630    9.80675727486517   -6.43586555928410
C        15.95429908875214    8.96747393673296   -6.38080642463051
H        15.46693039564668    9.91949556725842   -6.22786642111342
C        15.19810405330848    7.81293380668223   -6.45975198812848
H        14.12178773627117    7.86495223404907   -6.37875415953449
C         3.82127199520311    1.64527667213927    4.83244703869817
H         4.22054823351013    1.97869589364715    5.79860869577537

