65
CSD_code = EGUDES | q = 0 | S = 0 | Stoichiometry = C33H23IrN2O6 | MND = 6
Ir        3.26932772045211    0.82463921785088    8.02654818502349
O         4.23944496623409   -0.12788361338417    6.29826718316312
O         7.30709350656342   -1.53644681292710   12.04554016576436
O        -0.07955710834133    4.33123974535455   11.77812101867929
C         1.57297532226792    4.10976635966510   10.02902995213800
C         5.04703501456766   -2.98707682387706   11.38695240326850
H         4.10723475050753   -3.49120847736986   11.22218099735312
C         5.66026522626422    4.09879637757820    6.77470175903501
H         6.47445008238197    4.24271015820181    6.08331555379319
C         2.27054127032610   -3.76747554365984    8.08772082701707
H         2.17978891024037   -4.83376237913913    7.94668946351299
C         1.69184748442283    1.13052147047853    5.35455266949489
C         3.32843905472319   -3.24452832091404    8.80684516279108
H         4.09265380781293   -3.89872753039800    9.19172062478270
C         5.92036756249438   -3.46882549008908   12.29237535280534
H         5.73961213181697   -4.37713608004821   12.84435103033419
O         1.71598271217836    1.39158754314653    6.58239766121828
C         5.21455824496369    5.12956408923483    7.59084406615214
H         5.69307892970176    6.09666526060645    7.56788931904058
C         0.73589844089909    3.56419844898315   11.01709059903907
C         1.36419631636180    5.49577783257354    9.72831910679262
H         1.82850607834035    5.92144016032940    8.85220559659885
C         3.79573990098860   -0.19433269175798    5.12435166439932
C         2.44382354091123    3.23443465802243    9.33742528779942
C         2.62307559039518    0.38084737650566    4.62854387961996
H         2.41752262519423    0.23601887092436    3.57846224991750
C         0.52626066237072    6.24144832432347   10.47441682676339
H         0.32624031146362    7.27853947984495   10.25791890800115
C         7.15657120308431   -2.77223614190546   12.60821236087926
O        -0.89461201520435    6.30194065850413   12.36607834114058
O         8.02270541494785   -3.18096960862628   13.34066244356697
C        -0.19272967000643    5.68157619464805   11.60672843407830
C         1.43729703841739    1.34552118781651   10.43794364864316
H         1.34384308530747    0.27855890956443   10.57785555120054
N         2.58189743384352   -1.03048582321059    8.33969688902612
N         4.04578565262230    2.62623926395120    7.72406512994321
C         1.54831993341607   -1.53979625408627    7.67624517389764
H         0.87106424871796   -0.82710626140038    7.22603233871980
C         4.65947881637902    0.17327776958110    9.32861624410297
C         0.69443553492276    2.18811180094715   11.23708644765167
H         0.04322902924745    1.81130794662037   12.01012355625318
C         4.49469729522099   -1.17110357359629    9.70478787269054
C         6.65054951027620    0.27333403035430   10.71024048567020
H         7.51648345584208    0.79881774329495   11.08121537667760
C         3.44012397323237   -1.86342399712734    8.97683949024010
C         1.33380207735791   -2.89859169792667    7.54560726031649
H         0.47756109761837   -3.26399828132257    7.00221935831731
C         0.51018633576169    1.67046658925292    4.56954385840650
H        -0.06707669712477    0.84747706234488    4.15238744688280
H         0.85921554793002    2.29163999556123    3.74761623890855
H        -0.12600408695833    2.26047448517043    5.22466314405669
C         2.31819418236146    1.84039308584868    9.47405062712286
C         4.15649886058486    4.89333309404569    8.44771520809811
H         3.83797742867641    5.66348965025182    9.12941421777596
C         4.63314008230932   -0.97524965268958    4.12791020921731
H         5.52730601703755   -1.35354561921684    4.61737349027878
H         4.91838484998590   -0.33616687513218    3.29481381462470
H         4.05781534488594   -1.81097509494707    3.73468905808124
C         5.31207673291811   -1.75645943232865   10.70082847478639
C         6.42487818967748   -1.02921006173733   11.15339687568830
C         5.06274703239591    2.85964480459596    6.89924802501374
H         5.41993760179994    2.01182247442250    6.33099058079443
C         3.53839654907596    3.64136305473635    8.46725242059446
C         5.75233382461348    0.87076870973153    9.85282921887140
H         5.91628603234024    1.90176825393967    9.57454317350078

