51
CSD_code = EGUDUI | q = 0 | S = 0 | Stoichiometry = C16H19N5O10Ru | MND = 6
Ru       18.92583415334488    6.52132846780130    1.40262997178310
O        19.04734184897304    8.06919378391491    2.53407403053806
H        19.06190525433213    8.01378592500906    3.49645382193507
O        25.20452279726623    8.45185195853200   -1.75387657011401
O        24.43893469484994   10.42418662140093   -1.01086769882775
O        13.79368118948584    9.23388521534965   -2.81508070091397
O        13.84034921071618   10.90397142100478   -1.31014911522674
O        18.81513786942507    4.31154083013867   -0.37728504086068
O        17.26813551273282    6.17753935149234    3.57329263131610
O        16.37462144821869    5.67131937199016    1.68277663070393
O        20.03711607403896    5.86239001604015    3.82999090708410
O        20.92346259426142    4.84189967293730    2.15917612934650
N        20.79507246269846    7.38241623394859    0.37644650246411
N        17.53959659211845    7.82502307199028    0.08787513666457
N        17.30773383918628    6.02267965007525    2.38135623085953
N        20.11051378606793    5.59621778443613    2.65921548632051
N        18.84291053086021    5.20712064063535    0.35707208330354
C        20.97410839440790    8.69967655353849    0.42693373593485
H        20.18090138766714    9.26707735630990    0.90001483920665
C        22.10939830388111    9.32089788106807   -0.06326421419390
H        22.22351904079953   10.39079723834949   -0.00356080962810
C        23.10471860944702    8.53253873915331   -0.63206686951311
C        22.91693153740658    7.15435148635229   -0.67471729458563
H        23.68038259607223    6.52378571895682   -1.10222191207603
C        21.74816097464014    6.62206254849537   -0.15859605667569
H        21.58267578037307    5.55184287795935   -0.15684189207493
C        24.36396923743193    9.10989590840116   -1.19590937808125
C        25.61394849959710   11.07186677590784   -1.51011100262479
H        26.49475336871852   10.55459444098109   -1.11462546517521
H        25.62681252731791   10.97843468842028   -2.60174023993511
C        25.57890846899503   12.52474332528740   -1.07767130615142
H        24.69088032408031   13.01271375598282   -1.47054243477947
H        26.45987973454390   13.03623997368470   -1.45349367138661
H        25.56429808798090   12.59391240497773    0.00671197299403
C        17.07325689262720    7.41415878453874   -1.08908606494132
H        17.56189023707454    6.55949827334285   -1.53983625487728
C        16.01588420664357    8.03156512846119   -1.73366853710336
H        15.65950330207022    7.66599456701950   -2.68255760502557
C        15.41625785971319    9.13084494344252   -1.12764017128863
C        15.91154437988517    9.56370386059125    0.09802099349046
H        15.46319226189422   10.41407202860680    0.58719689772743
C        16.96791709983857    8.87662410238803    0.66836531728149
H        17.38536835411200    9.16934339876348    1.62729022502304
C        14.26978662887863    9.86669284079085   -1.74627084794774
C        12.69449712998663    9.84500956687902   -3.49740586761788
H        12.18876314187074    9.02348834086559   -4.00810599240809
H        12.02565705758597   10.29529730317576   -2.75715036728198
C        13.17345819800698   10.89796630273614   -4.48571832144726
H        13.66520991662457   11.71055101656164   -3.95639306140813
H        12.32234244893935   11.29784432923142   -5.02873724492993
H        13.87315415230382   10.46106352200121   -5.19430153486482

