93
CSD_code = EGUDUG | q = 0 | S = 0 | Stoichiometry = C48H36Br2N4O2Pd | MND = 4
Pd       11.50805162728527    5.02210106618202    7.02276876859462
Br       12.42830186960104    7.23743137510293    7.42968513337410
O        21.03335548044386    2.00142231846097   -0.33603330992776
H        21.31996913635287    1.08835010421532   -0.18936144898927
N        16.83962164325224    3.20335767494501    3.05287218696349
N        12.88071985450211    4.69619407289771    5.69308908830399
C        13.92428794560974    3.91448579213926    5.97921128933105
H        13.94451907071464    3.48404640694546    6.98071466280429
C        14.92011078661345    3.65525711048101    5.06529120375310
H        15.75728075782300    3.02295403006455    5.30987178255712
C        14.84107746206085    4.22080961883231    3.78720478087191
C        13.74043642250018    5.03552731589392    3.50639126320426
H        13.63042221856432    5.49829201432733    2.53785589701082
C        12.79104144937487    5.24748461275373    4.48334923630184
H        11.92434868332339    5.88377703297806    4.30344036047268
C        15.86011086822139    3.96923771990200    2.78948739593345
H        15.70818360721548    4.45276608099237    1.81647028642404
C        17.86810302223635    2.94803419674339    2.17818356196695
C        18.51451947149330    1.71725808042407    2.30185175415788
H        18.16252039265223    1.01554051866264    3.04182702996676
C        19.57928526536259    1.38411464990984    1.48299510897398
C        20.03185672584115    2.30542709054364    0.52568265021444
C        19.41599066454917    3.56210865499804    0.41478443439718
C        18.33996530457017    3.86295151186445    1.23288460142559
H        17.89646355264935    4.84577539767478    1.16906127634857
C        20.22323336906305    0.06186630450089    1.62159077592328
C        21.60176976555266   -0.05161948148160    1.79729718937824
H        22.21081094427316    0.83955515408801    1.86844021586318
C        22.19119377541086   -1.29670757512097    1.93072301904374
H        23.25918674971445   -1.37061911887250    2.07339883065620
C        21.41499630429601   -2.44198780187783    1.88776534120412
H        21.87641589511689   -3.41265161946778    1.98992081139946
C        20.04339896433285   -2.33798540127927    1.72163490956487
H        19.43372063016373   -3.22892155376566    1.69402823605552
C        19.45051314482566   -1.09619953739285    1.59109302377187
H        18.38222684424875   -1.01423433008110    1.45451774843742
C        19.88876743049878    4.55420863776552   -0.56692531878838
C        21.24074159871990    4.85840858745258   -0.68946829911293
H        21.95915247966762    4.35582065306386   -0.06067955393539
C        21.66440588076467    5.80777611714787   -1.60074516199951
H        22.71647443776448    6.03833559160513   -1.68434274185600
C        20.74674471882691    6.46359824087176   -2.40387529050794
H        21.08000384073020    7.20299611589296   -3.11716949776836
C        19.39922282187322    6.16644654222485   -2.28970282196167
H        18.67855135937403    6.67232152773662   -2.91591736000225
C        18.97253845967886    5.22094674562245   -1.37598064222323
H        17.92161366070280    4.98035673194095   -1.29975584066046
Br       10.58789494734268    2.80665631781086    6.61591812183090
O         1.98319306008388    8.04146027428038   14.38282248147710
H         1.69652840115498    8.95454684373559   14.23635657375783
N         6.17575962742718    6.83990712449915   10.99233190481752
N        10.13516945230046    5.34770988319954    8.35226039562088
C         9.09157002319266    6.12934335976625    8.06606009593282
H         9.07144324545921    6.55989619597516    7.06460030204755
C         8.09558143080531    6.38839271308443    8.97985566019587
H         7.25837027762752    7.02061325499889    8.73519675612066
C         8.17449019857196    5.82274569879581   10.25790726578943
C         9.27521028417716    5.00816592927666   10.53882646488720
H         9.38516253594638    4.54535099446715   11.50734378238173
C        10.22476406961946    4.79638654174503    9.56199499726858
H        11.09154522040834    4.16023997040215    9.74198760634339
C         7.15535341497683    6.07407928369473   11.25557052088955
H         7.30729895954162    5.59039876400677   12.22851112126588
C         5.14738363528707    7.09499262917530   11.86722910355772
C         4.50082037550724    8.32570802216708   11.74380518831321
H         4.85247530940125    9.02743578770041   11.00367720952236
C         3.43635707630352    8.65880563823694   12.56308636717272
C         2.98422356613376    7.73745992768778   13.52056781646986
C         3.60006343505761    6.48071676306196   13.63105980113999
C         4.67581692184183    6.17996399975389   12.81257348275589
H         5.11932247312726    5.19712586806964   12.87613410663086
C         2.79231689776164    9.98101304097930   12.42458187702133
C         1.41367720389372   10.09453058088293   12.24976797283422
H         0.80449098748852    9.20339003257894   12.17945849531764
C         0.82426970677027   11.33960689656176   12.11610614937651
H        -0.24382220581790   11.41354366631816   11.97416278995835
C         1.60057530623925   12.48484312259186   12.15793562730522
H         1.13915883285910   13.45548695629249   12.05555567764124
C         2.97226608314568   12.38081513659464   12.32325269014263
H         3.58203649466997   13.27171440818746   12.34996411423664
C         3.56512781361313   11.13904919438120   12.45403407739842
H         4.63349505534505   11.05707049272191   12.58994664774179
C         3.12742709415145    5.48840416943599   14.61262505474143
C         1.77540285121828    5.18451784736407   14.73548352057857
H         1.05693360034564    5.68754160702969   14.10711589774576
C         1.35175115119995    4.23490930860010   15.64651040473970
H         0.29965279545524    4.00458867082541   15.73032026492591
C         2.26948934353748    3.57847899570547   16.44905635337207
H         1.93625236951008    2.83885332660798   17.16212626907766
C         3.61705983175004    3.87528747948578   16.33455324268689
H         4.33779057798136    3.36890877889345   16.96029425514720
C         4.04372381830960    4.82106386356399   15.42110067212813
H         5.09470009087481    5.06136566017660   15.34464425280357

