65
CSD_code = EGUDAN | q = 0 | S = 0 | Stoichiometry = C31H26Cl2N2O3Zn | MND = 4
Zn        2.18597638106885    7.14972587601398    4.64872657980557
Cl        3.56389602843730    6.27871225137289    3.20719857967082
Cl        2.80965047191156    8.96781985860521    5.79806329341829
O        -1.08902801505848    5.79989352551699    6.82955621706458
O         0.63125989467693    7.97625688069494    3.73786263057424
N         0.82331494001527    6.07304336088240    5.73635114757779
N         3.59352572135179   11.15438160816069    2.36400919023219
C        -0.36592630013692    6.56187226757870    5.98343862294677
C         0.92077553095825    4.90897473352960    6.45516089447399
C        -0.29333843797696    4.74386631767761    7.14307172997696
C        -0.52924089174099    3.66037019195036    7.96778821435868
H        -1.46359959265900    3.54320295267328    8.49166831421200
C         0.49975848567942    2.74204805272841    8.07968443522559
H         0.36386494599230    1.87888455876204    8.71300232634954
C         1.70763848202900    2.89834437742588    7.39782409860277
H         2.47567382268746    2.15023961313063    7.52061864566828
C         1.94487484520622    3.98014613938948    6.57353761814925
H         2.87227409136653    4.11033649386191    6.03872426375257
C        -0.93382590000668    7.79057441941881    5.49366230752974
C        -0.28085368698292    8.51188327262779    4.41324079803463
C        -0.72365012460793    9.86438592850982    4.17355772875261
C        -1.99190157299399   10.29133810209312    4.70035999114332
C        -2.66913630003887    9.48519091812198    5.65137404862810
C        -2.08100950414919    8.27394459326172    6.06998454069142
H        -2.55420189380904    7.71335647180354    6.86381707031423
C        -2.62520767360659   11.47816553505686    4.29137224367869
H        -2.17735530549839   12.09006182221496    3.52338642467269
C        -3.83587883429700   11.86133436035311    4.81354107076075
H        -4.30273148452613   12.77328357018209    4.47102955453474
C        -4.47861057168226   11.07922816554440    5.77696368933968
H        -5.42648348734081   11.39719067016829    6.18371015615177
C        -3.90153482434375    9.90612070371894    6.18444481343772
H        -4.38946624007465    9.27725417544771    6.91490534193955
C         0.14398237814889   10.80436876815152    3.59201368594988
H        -0.17240775129654   11.83352010163626    3.67771650091174
C         1.39889496234862   10.55959026466709    3.07139438036128
H         1.70465991897078    9.53044607038720    2.98966893766860
C         4.34408034185567   12.25926644987407    1.98224834978804
C         3.55844909184165   13.40753612461920    2.08750522253917
C         2.34341429529594   11.50611684506504    2.70560024215085
C         2.19591932636504   13.01458733077002    2.59972875371564
C         5.65547905854633   12.33889250439507    1.53720899201433
H         6.28332105295621   11.46797311975818    1.44225350578551
C         6.15342524340585   13.58279241475890    1.20772253644891
H         7.16688323087032   13.69253059923894    0.85744978882710
C         5.37344874897382   14.73943589910110    1.31365398407577
C         4.05433450298541   14.65008369351639    1.76122696505221
H         3.42996380198058   15.52416050530074    1.85235185037156
C         4.12392608930826    9.82155410908706    2.46561450110749
H         3.97669194198950    9.43766312444767    3.47818564409300
H         5.18785340410767    9.83427460371897    2.25154370812835
H         3.63319458394003    9.14364626463167    1.76539428363567
C         1.97000299013255   13.64737303275606    3.98073677795015
H         0.98178983361114   13.41968880171100    4.36697137101323
H         2.07516937241569   14.72746442004365    3.90865366074169
H         2.70613472484809   13.27177011983187    4.68730683019378
C         1.10664866924525   13.42517849744329    1.60310075859663
H         1.06923787836286   14.50906682032108    1.52584457321916
H         0.13162013044791   13.06424744002714    1.91422554229261
H         1.32585379708664   13.01531655690905    0.61961569313865
O         5.99028399814082   15.89456356641525    0.95571776748524
C         5.27503324266173   17.10296549497932    1.05019638557168
H         4.39703313298401   17.10293084427700    0.39618278600921
H         5.96504700085081   17.87906564222451    0.72374780806878
H         4.96442800668401   17.30659820174083    2.07998163125553

