65
CSD_code = EGUDOC | q = 0 | S = 0 | Stoichiometry = C33H23IrN2O6 | MND = 6
Ir        1.89487459366558    2.37340486211856    2.68822730874120
O         1.03380093013866    0.51012197620334    1.88413447530952
O         2.15475571615744    1.22337611104768    4.52614333813706
N         0.20289921951672    3.01414721223465    3.53917637895002
N         3.58666774528933    1.76034162581332    1.82099068577327
C         1.74959299165132    3.33772215417860    0.92913503671606
C         2.58692704317670    4.05998851184984    3.54168580025175
O        -0.21837862985263    4.54116325603048    1.38033543891033
O         3.50700446812376    7.45468148235822    5.78057771742139
C         0.31375981449479   -1.73347690978142    1.69730163237118
H         0.08778665130837   -1.40425417257622    0.68604810659489
H        -0.59762153863089   -2.08753476639434    2.17478771018113
H         1.02051626177894   -2.55979362041785    1.65758514758640
C         3.76647212247915    2.09992305258941    0.52158068248143
O         4.90992596657367    9.00970060270136    6.48514990755982
C         1.61903388884975    4.71597093197683    4.34512667737470
C         4.46802858092034    0.95595811436852    2.40883687429777
H         4.28959626977803    0.73220155451420    3.45140961822648
C        -0.32655304098498    5.63528137389221   -1.15377580633911
H        -0.34606586902632    6.05482851993975   -2.15034722647446
C        -0.97073022548623    2.40792786699891    3.40352849339366
H        -0.99208632989676    1.54031394367454    2.75833359591991
C        -1.25567138141564    5.36892517118469    1.08623765807090
C         0.28904851971438    4.11903802842362    4.31024102455254
C         3.86159044025453    4.58864596010844    3.50848750268764
H         4.63332282298199    4.13019321937135    2.90524723146979
C         4.84994716514032    1.59905140043274   -0.19912906009567
H         4.97720491748868    1.86948040155187   -1.23456389866022
C         2.75332656248657    3.00683184429692    0.00287859917190
C         5.56192500485964    0.42805896340289    1.75023277617099
H         6.24577959128524   -0.22261386787872    2.27099856570454
C         0.74140034863747    4.74744996595453   -0.80990598695371
C         0.90548280590356   -0.58172628803334    2.49050065444610
C         2.75417440548279    3.52837241740343   -1.29987417602361
H         3.53362091882835    3.25786915049592   -1.99547187508170
C         3.23169169610148    6.35200303970085    5.04036725354174
C        -0.83369475342056    4.62170075738415    4.96249885166961
H        -0.75331972441091    5.51253397684358    5.56283207426360
C         1.76272275305117    4.38546954388275   -1.70060811665744
H         1.75220676241893    4.79170532009260   -2.70089081689751
C         4.20749575560274    5.72942418157104    4.24468635984925
C         1.80529456784716    0.03507430794702    4.73544415086908
C        -1.28199312059265    5.93444775876222   -0.25266598029584
H        -2.10454925897389    6.59605497208147   -0.47137608278391
C         5.75357965473611    0.75293858499770    0.41377960009450
H         6.59334677127020    0.35491762337792   -0.13524600782573
C        -2.12245418041599    2.85455419843023    4.02246495212363
H        -3.05465301381089    2.33475729449812    3.87052368769107
C         0.75295115141734    4.21659466215275    0.48944953935624
C         5.51601835835782    6.30926410067941    4.24028459820419
H         6.28242525081336    5.84739182983210    3.63328979049523
C         4.74512964689243    8.03020626546255    5.79957019814256
C         1.94002336031086    5.84477160268959    5.08643306432510
H         1.21806226643710    6.35016867051070    5.70726910823894
C         5.77316491955454    7.40395244363827    4.98023195718681
H         6.74249851290919    7.87514924085131    5.00956704803612
C        -2.05253654779553    3.98904705238371    4.81638691944516
H        -2.93464619521398    4.37858257549877    5.29987652732094
C         2.04658117700719   -0.50440998497318    6.13388079214601
H         2.50401434906520    0.26586997400476    6.74973232203757
H         2.70066963765889   -1.37314140723156    6.09402542542520
H         1.10294470057000   -0.80919403624498    6.58145353247372
C         1.23429316546586   -0.85514638903182    3.82155175966809
H         1.02494656063973   -1.85223498413678    4.17940065503535
O        -2.08047297516851    5.57487677430942    1.94793622798484

