53
CSD_code = EGUFIV | q = 0 | S = 0 | Stoichiometry = C15H29MoN3OS4 | MND = 6
Mo        1.47155404069970    7.27214919836754   11.60223226793615
S         2.97587631056223    5.28358196341786   11.46374044715638
S         0.15023409971341    5.29293411281627   10.87200518198409
C         1.62028306424460    4.40636526346825   10.92514557695126
N         1.67882336317775    3.11470571676119   10.62086265959069
C         0.49368008418582    2.42626908764810   10.14685622262826
H        -0.35727024801165    2.77730688658542   10.73825154905480
H         0.63187161170601    1.35791971982974   10.32505395772414
C         2.94440341265548    2.40984501566327   10.68072034402625
H         2.73348950681355    1.34997929040700   10.83879882759212
H         3.49969614824029    2.79119867769596   11.54300791413374
C         0.21678493808418    2.68832682526636    8.66927229151951
H         0.11003898750983    3.75590803796675    8.49562744696632
H        -0.70871474860551    2.19754830471180    8.38183971410008
H         1.02145384246964    2.30853665693669    8.04556833912513
S         1.19677646217366    6.45688917003940   14.09946792576379
S         3.12432218707015    8.44916425405135   13.18205569660019
C         2.55083156636728    7.43933779799456   14.43061438868583
N         3.12828992977575    7.43159387490494   15.63341988378401
C         2.63968214588253    6.57545248575304   16.69414646313745
H         3.48480181073133    6.31479690629497   17.33465745935208
H         2.23959474657168    5.66180394590331   16.24691647843682
C         4.28261999679233    8.26240172880569   15.90841739364523
H         4.28286075520713    8.49374464842376   16.97574819738490
H         4.18028659348427    9.19179176909993   15.34283732164798
C         5.57900257152059    7.56289285168474   15.51040542587284
H         5.69454603872984    6.62618418385033   16.05133704294527
H         6.42775954197646    8.20324133054062   15.73166110505906
H         5.57038068717493    7.35265933965588   14.44424356755601
C         1.54624718187611    7.26537245856100   17.50460165605265
H         1.91398104295015    8.19274765085738   17.93766604144260
H         1.20973135789193    6.61255213432592   18.30475234275776
H         0.70171057629894    7.49121021238045   16.85945339845395
O         1.82360409731547    8.00649382564709   10.18530758656160
C        -0.01877342723295    8.38241343411529   12.27285458639962
N        -0.92229706584154    8.99970516564803   12.69962398751258
C        -1.48487300335035   10.01611402539668   13.51469676912213
C         3.78249785404797    2.60389726242030    9.42028140745939
H         3.29079978699235    2.17302967807542    8.55223981518506
H         4.74796454223025    2.12238775206715    9.54828200378822
H         3.94594748052574    3.66356405379575    9.24230984061050
C        -0.82486486386867    9.92621049486404   14.89560695672263
H        -1.00975614533154    8.94809109613684   15.33546195188619
H        -1.22840638701488   10.69117011038067   15.55412032975310
H         0.25133303230535   10.06606997132519   14.80457028413807
C        -2.99254069731752    9.77644861094019   13.60997902567701
H        -3.44122459542799    9.80872678285774   12.62022886036920
H        -3.45353853840206   10.54075532788485   14.23007472636935
H        -3.19221003219227    8.80104224798344   14.04746839613150
C        -1.18354450374505   11.36449872418742   12.85440464815312
H        -0.10902700480589   11.49704818412421   12.74721094418570
H        -1.58375835335874   12.17137006419508   13.46316681489624
H        -1.63496178144075   11.40985168727720   11.86632653602027

