37
CSD_code = EGUGET | q = 0 | S = 0 | Stoichiometry = C14H18CdI2N2 | MND = 4
I        -0.91957889366073    1.82330516398184    5.70784390944233
Cd       -1.54215004236386    1.06727281639204    3.21876576478752
N        -3.27518629225869   -0.74796846923732    4.05392586762788
H        -3.34627581340472   -1.72524772793849    3.78519532939531
H        -3.23209080524147   -0.67428408523343    5.06889700848635
C        -4.35645914981174    0.02086412789176    3.53441845548127
C        -4.79707015152399    1.14066272431170    4.23576123630904
H        -4.37262418231749    1.36755610850722    5.20745942143852
C        -5.78326387511868    1.95280953830314    3.70411519154853
H        -6.11413193529803    2.82047756601910    4.25442039114160
C        -6.34009018096767    1.64612187798607    2.47503777436558
H        -7.10542709098065    2.27832101408943    2.05272462009976
C        -5.90856472423737    0.52790919646718    1.78359237858658
H        -6.33867495151435    0.29511356766423    0.82096466669984
C        -4.91751154413881   -0.29849341221245    2.29273835121672
C        -4.43715117538042   -1.49286243316191    1.52101773631475
H        -3.35980820724264   -1.43608196494334    1.35149294728326
H        -4.92982670394091   -1.53633594385822    0.55419575896480
H        -4.65306033651459   -2.42038506047319    2.05569715620237
I        -2.16043296125896    1.81431662081231    0.72583287089378
N         0.19456427928149   -0.74657959274451    2.39552158272075
H         0.26323197504214   -1.72315504432823    2.66754666144101
H         0.15271783632112   -0.67621433332535    1.38022096933514
C         1.27743048429387    0.02117220348941    2.91345154184349
C         1.71584952985177    1.14213584099119    2.21259636443302
H         1.28794714556251    1.37101426619427    1.24285114767360
C         2.70412141174066    1.95305316037246    2.74214886284053
H         3.03304115496345    2.82180614931477    2.19239410138052
C         3.26536107935114    1.64392601576682    3.96860849537326
H         4.03251946057950    2.27504506699059    4.38922709755442
C         2.83575642862881    0.52478327939602    4.65966735400469
H         3.26919625215053    0.29013225045613    5.62036251443742
C         1.84247523412927   -0.30030415126547    4.15269593790534
C         1.36401872667170   -1.49528349444659    4.92462886382488
H         0.28813302824762   -1.43522960070967    5.10225059483068
H         1.86363481811214   -1.54294970525173    5.88774736341925
H         1.57298017224157   -2.42222353627466    4.38608371071269

