66
CSD_code = EGUMID | q = 0 | S = 0 | Stoichiometry = C28H32P2PtS2Si | MND = 4
Pt       -1.23040977498422    8.73155382043702    4.06005491675425
S         0.39524752186880    7.00938753769163    4.15185390121435
P         0.48281450209655   10.28187343056729    3.99540717252059
Si       -1.23225784739811    5.63035394422578    4.06299935624988
C         0.64177264847681   10.97976156527998    5.66735089070241
C         0.02526356553401   10.26379098785169    6.68871964556046
H        -0.52414967096865    9.35719246203282    6.42892994444255
C         0.11532806626171   10.69371459584581    7.99901825269445
H        -0.36077323624745   10.13155407502789    8.78857906090646
C         0.82059877289556   11.84913519809763    8.29590874876352
H         0.89265139454256   12.19144933330627    9.31762664533253
C         1.43748090133983   12.56595375196346    7.28332786033725
H         1.98949996561487   13.46456349360461    7.51791425437529
C         1.35395333661536   12.13303283603758    5.97174919547881
H         1.84425970085813   12.69613127325148    5.19041780028677
C         0.35922583499272   11.73420469056214    2.87503439847919
H         0.35187665695109   11.36556902453098    1.84986118465508
H         1.21045942932428   12.39950501045946    3.00768526464916
H        -0.56729329875359   12.27712053778304    3.05011433427985
C         2.19052683314474    9.73759851884202    3.64681728589923
H         2.24732603983951    9.40622334523579    2.61104357969076
H         2.42114331112282    8.89170671890537    4.29135132134614
H         2.89143859875763   10.55319071978696    3.82318621451130
C        -1.40543385975178    4.51054811972461    5.57206213347804
C        -0.68558390211562    3.32487249450417    5.63103281480368
H        -0.00649363336504    3.07721341780666    4.82697832431655
C        -0.83506678129917    2.45907556318133    6.69837397614102
H        -0.27105599893022    1.53716109291308    6.72884843090587
C        -1.71173051395549    2.76973283087992    7.72500314792971
H        -1.83485733420950    2.09008982059832    8.55663314980742
C        -2.43145081344497    3.95131662879008    7.68024806922822
H        -3.11891055633962    4.19775331767261    8.47763343999971
C        -2.27583410315077    4.81377526252149    6.61035262459625
H        -2.84557762332250    5.73188277977929    6.56946545272719
S        -2.85857832058131    7.01140531313565    3.98430055942631
P        -2.94138782757623   10.28506352487186    4.11316760354350
C        -3.09994129133240   10.97483611156057    2.43781099113812
C        -2.48438011603008   10.25326346988464    1.41985276171859
H        -1.93554129145711    9.34765769636139    1.68408602886901
C        -2.57459837241947   10.67667487620882    0.10743248949170
H        -2.09923564107390   10.11021430013866   -0.67950012103060
C        -3.27912564679309   11.83111321530095   -0.19499698853923
H        -3.35137961407016   12.16829966905573   -1.21840718464110
C        -3.89507898329358   12.55350147597932    0.81419189349389
H        -4.44657301753776   13.45129862714732    0.57528121146592
C        -3.81135406356947   12.12712530319123    2.12789543329904
H        -4.30096988618947   12.69448364461736    2.90657426780967
C        -2.81520141961400   11.74292551805794    5.22600896710880
H        -2.80809804348945   11.37952114661858    6.25304707281975
H        -3.66539754960089   12.40891979350195    5.09022284768619
H        -1.88788088598883   12.28346883974662    5.04786712673144
C        -4.64988891312342    9.74539875616762    4.46497603126602
H        -4.70653214437823    9.41838108126700    5.50213412892713
H        -4.88240412696132    8.89719067815441    3.82420416411331
H        -5.34950254270888   10.56146162189084    4.28561952138859
C        -1.05907163671021    4.52360566548963    2.54402267813529
C        -1.77627078436922    3.33678571926925    2.47601123092919
H        -2.45358793329561    3.08072627637962    3.27892894243999
C        -1.62618554439763    2.48032459689193    1.40123907051776
H        -2.18804983290473    1.55735835597291    1.36382366288732
C        -0.75156330638934    2.80156533877002    0.37613299870678
H        -0.62784206592371    2.12912074816659   -0.46124135969082
C        -0.03456060937606    3.98443274064500    0.42981625627559
H         0.65124082952113    4.23916188815254   -0.36639931763001
C        -0.19080011446472    4.83753116292368    1.50708649901480
H         0.37675256409647    5.75669464481816    1.55482773924678

