52
CSD_code = EGUMUP | q = 0 | S = 0 | Stoichiometry = C20H29BrOTi | MND = 8
Br       -0.93330024400646    0.59236003810532    3.70535391365727
Ti        4.46547330284573   -4.28083843995782    1.41424771717699
O         3.57493614124639   -2.95119475675883    1.96808376179329
C         3.16505299579198   -5.57764320269928   -0.04519434063048
C         2.53075386762194   -5.60940817134226    1.22518620796239
C         3.41286045517572   -6.24446085948080    2.13905696214463
C         4.59968397698009   -6.59553844988803    1.43665316075049
C         4.44679799185119   -6.18208142409614    0.08657167060107
C         5.99650400089252   -4.23592478261378    2.81652583283082
C         5.59436486818389   -3.32120892902241   -0.04132429884419
C         2.52866661586100   -5.18627713193891   -1.35004651294047
C         1.12548768145769   -5.16552719861448    1.52713823275019
C         3.08033006355021   -6.67258089768489    3.54133521966521
C         5.69444489969195   -7.48306716893439    1.95907657382394
C         5.35815958494103   -6.55672701373208   -1.04848582031430
C         2.59801006912744   -2.15775124849302    2.35101357204648
C         1.89549111010447   -1.38931767416647    1.40025145009410
C         0.85374187302795   -0.57800037006938    1.81436543239380
C         0.51200089572741   -0.52511861177170    3.15357503924562
C         1.19525697486810   -1.26558223029158    4.10148602999547
C         2.24060829602638   -2.08457519705351    3.71319488256434
C         2.31419285161354   -1.45965065568329   -0.03720280641298
C         3.02329493963350   -2.88908704963316    4.70628326808766
H         6.27421053078753   -3.20559476682023    3.07707760459140
H         6.89665907363664   -4.72720030056690    2.42605027626412
H         5.72103415602762   -4.74381092588469    3.74869423503544
H         5.06031447992695   -3.23483024624298   -0.99528034262038
H         6.52608720650244   -3.86821282296025   -0.23330879895826
H         5.87110856647498   -2.30441077787339    0.26906554974229
H         0.31010530429700    0.01243851904584    1.09201697143066
H         0.91480277349822   -1.20523323140852    5.14245676891089
H         3.21922294717496   -4.63084554402477   -1.98635260104259
H         1.63806281004829   -4.57980366535838   -1.19304640996819
H         2.22669484538039   -6.08363603308780   -1.89647116474499
H         0.80451102242285   -4.37328532415496    0.85055902179791
H         1.03778289706699   -4.78751889449765    2.54684037658776
H         0.43083872265573   -6.00272798186515    1.41806691041813
H         2.83041997059017   -7.73691304393829    3.55274165283989
H         2.22127161622411   -6.12710808461717    3.92944735696278
H         3.92240433021232   -6.52558333316382    4.21962662183652
H         5.45069500277723   -8.53026446769234    1.75908755517784
H         5.81868633501149   -7.36896240460848    3.03486743719026
H         6.64665149193646   -7.26417501586475    1.47622053367601
H         6.40115800797171   -6.56745652014763   -0.73197516484889
H         5.25777010969804   -5.86412456966705   -1.88268693065188
H         5.10821302177308   -7.55759775377869   -1.41148937991303
H         2.65069131370630   -2.47268734984295   -0.27609204555375
H         3.15285894612253   -0.78255021408869   -0.21156595159242
H         1.49787055186570   -1.17407368994753   -0.69645129808898
H         2.46369092893537   -3.02413446889973    5.62831299172927
H         3.95973677827463   -2.37857790630763    4.93917479025666
H         3.27613304679663   -3.86291775592825    4.27816828509721

