25
CSD_code = EGUSEE | q = -1 | S = 0 | Stoichiometry = C12H8AuS4(1-) | MND = 4
Au        4.21737636412305    3.30057579477334    0.00091362859899
S         2.22614883905669    3.86925677954294    1.04509821846174
S         5.37380648071561    4.65056371671523    1.49149292389577
C         2.75281222280673    4.96452246732906    2.31266680929416
C         4.09150987225809    5.29716686218294    2.50227830475368
C         4.44175725790944    6.17227709836803    3.52543994526897
C         3.47539234103820    6.71114838736331    4.35081661537743
C         2.14174072814244    6.37934706865361    4.16206091640813
C         1.78547588147681    5.51167379771854    3.14934174407710
H         5.48568794621489    6.41576289347944    3.65349199067726
H         3.76262059010547    7.39030286460603    5.14137287127247
H         1.37911205303712    6.79720413540028    4.80439156041156
H         0.75389691982645    5.23944114361553    2.98396384023631
S         6.20806745502881    2.72921666660140   -1.04623665444475
C         5.67996855669161    1.63400892612045   -2.31343448742715
C         4.34088955248230    1.30240577869686   -2.50160251764973
S         3.06062633151388    1.95053470472307   -1.48953310882884
C         3.98843174455777    0.42730381250146   -3.52391457427253
C         4.95322848730501   -0.11275582781301   -4.35025572971315
C         6.28740769170545    0.21792879749715   -4.16317136066678
C         6.64577343237090    1.08562743942387   -3.15115128710212
H         7.67777712110036    1.35696479012583   -2.98700816360554
H         7.04889528910148   -0.20083166198697   -4.80626847891817
H         4.66450728001015   -0.79195452153347   -5.14023227051111
H         2.94408956142127    0.18480808589510   -3.65052073559364

