54
CSD_code = EGUXIN | q = 0 | S = 0 | Stoichiometry = C16H24ClCoN6O6 | MND = 6
Co        8.44810458607341    5.31367573785234    2.77682107574907
Cl        8.64742293697754   12.20856157691475    4.82097322414812
N         8.96949032581204    4.10188243885567    1.45500205025052
N         9.20839004461129    4.06634026931591    3.93484999125370
N         7.78111305951859    6.72078678167418    1.59851007474623
N         7.88561341788364    6.60676226286833    4.12085214767855
N         6.85238965774194    4.50271271877192    2.87356412776345
N        10.46196409714749    6.15829111469429    2.55524645618632
H        11.04087022502334    5.35671546521484    2.30325894632943
H        10.46396408401086    6.76816385835813    1.73796915070130
O         8.83198263023133    4.36988867715585    0.19916386413393
O         9.34262169409215    4.31121085956607    5.19578581628454
O         7.89097058007607    6.71354328298898    0.25474852798526
H         8.25536389585817    5.75058916451803    0.04478299675365
O         7.98759322596295    6.42201969665575    5.44972105503681
H         8.54460766301512    5.53414313974568    5.53099986415564
O         5.88828138193306    5.23723984949389    2.85675838738476
O         6.81010627528947    3.29785711339669    2.94225347314921
C         9.49618450846504    3.00836851458276    1.91596209073663
C         9.64762925663078    2.99479491490144    3.34987038183720
C         7.23333264696707    7.71575025148819    2.20307222841173
C         7.23994919669661    7.61892645936316    3.65593724505187
C        11.13220475555174    6.85164985467909    3.66852755126441
H        11.02706949689382    6.21735878572998    4.55541109870124
C        12.62388947926574    7.04829848879815    3.37319161971432
H        12.76178425272248    7.65881839695407    2.48263039827805
H        13.11406061426566    6.08832729931762    3.22171012659846
H        13.10510962507400    7.55029919773101    4.20802064477061
C        10.49050351295711    8.18952767866119    3.94356080341229
C        10.25088777788634    9.09801528303187    2.91932122205364
H        10.50125030920622    8.85927367547033    1.89575077883953
C         9.69048447948807   10.33405111633802    3.18360372452898
H         9.50951172520664   11.03528215855289    2.38391373640937
C         9.37031663970198   10.67079785705164    4.48868742687943
C         9.61619753853892    9.78599480398472    5.52595746759605
H         9.36660267710914   10.05687834949265    6.53919695286704
C        10.17571588905347    8.55304519679754    5.24695726154035
H        10.35648068044773    7.85950291856259    6.05352443708767
C         9.93582400602538    1.88443710731737    1.03743876826209
H        10.99130118010637    1.66076305617106    1.18510049851741
H         9.76467293612576    2.16216673565033   -0.00006286967448
H         9.35952622080633    0.99005241461458    1.26684732455195
C        10.28039855109381    1.86426975509751    4.09161615493732
H        10.30024422905994    2.10758355646466    5.15134420268364
H        11.29628171147360    1.68603877347024    3.74170747599334
H         9.70126600998969    0.95483210693085    3.94389737103152
C         6.63730102969233    8.88970209005609    1.50612107899231
H         5.57867208003227    8.96031726939618    1.74811486076574
H         6.75056031482182    8.77035296422140    0.43172002226324
H         7.12394319122540    9.80994771294700    1.82399464241294
C         6.52652047479016    8.61107703306187    4.50654563683378
H         5.45261707835276    8.46274917539692    4.39671248983016
H         6.76575992720811    9.62923658765692    4.21262134672766
H         6.79639621580122    8.45642845201862    5.54771256959884

