129
CSD_code = EGUYOX | q = 0 | S = 0 | Stoichiometry = C63H61AuN4 | MND = 2
C        -5.27546974752080    9.99004912963124   -2.41955233828023
H        -6.05511232772090    9.24240809516911   -2.44159322913065
Au        2.10123101455620    5.19318790615817    1.04812395306033
C         3.75217891768673    5.06371225956178    3.80240743391555
C         0.57552173314788    5.03409327386601   -1.52770280250786
N         0.93274916881098    5.79782515585190   -0.45255675204092
C        -0.72314175636895    5.16288320355861   -3.58709472354512
H        -1.33402920040252    5.71278937177218   -4.28767295614247
N         3.88379645526048    3.35114070770227    2.27168100642235
C         3.30939408725023    4.50059590329870    2.46977810016290
N        -0.86111231416840    3.19930196907340   -4.99592487318340
C         0.34769476321129    7.01867836792245   -0.63598451509430
C         0.91903375738714    3.71389450022561   -1.79952792172125
H         1.55178414249617    3.15946022796309   -1.12228733295417
C         6.25354586870448    2.97879350520493    2.89026610231064
H         6.90118288399963    2.66715580476566    3.70641088729733
H         6.52058867746595    3.99520420196822    2.61527525056274
H         6.43297011075132    2.32176466040237    2.04400154845370
C         2.61398954345677    1.62406873219860    1.10099016235377
C         4.44784948783065    2.75108038118456   -0.04426606907334
C         3.65343733321504    2.56673211367562    1.09627529915688
C        -0.40014214705314    7.05728200021748   -1.84503255841469
C         0.42695132083255    3.12834086982764   -2.94441306874832
H         0.65788151325875    2.09579077891962   -3.16362852857686
C        -0.25276112861345    5.75908600098665   -2.42706863050312
C         0.40974897650713    8.14054087218146    0.18465138774646
H         0.97427656594502    8.11632075335275    1.10614016106007
N        -1.67645927868321   10.50265967471517   -1.74660711857341
C        -1.00002770817320    9.31722039831007   -1.39372552455867
C        -1.06663140988219    8.21170039778673   -2.22550113829117
H        -1.61933710822769    8.25643746761388   -3.15231759977106
C        -0.92577978544657    2.01041332224227   -6.93878432404042
C        -0.09224236707825    2.52900657300582   -5.91856571441235
C         2.47292643115373    0.78826083437055    0.00077687385269
H         1.68226207725349    0.05541754558083   -0.01004988328167
C         4.69236042830924    6.27865122456573    3.59065672188619
H         5.52503199500344    5.98039428083317    2.94246429589966
C         0.99738063474577    1.11312412329758   -8.02053044179954
H         1.44873301786755    0.55842853188244   -8.83021927807230
C         1.57666202532623    1.55299638817914    2.19923317235116
H         1.87923453968566    2.20135515596645    3.02657903590144
C        -0.38426602589721    3.84269613870483   -3.83583104394509
C         4.26890302945723    1.88861270028435   -1.11903716743949
H         4.87724675930887    2.00980647508887   -2.00085714282239
C         4.46720274117532    3.85829149308389    4.46363649121104
H         5.36777394119617    4.13951501453378    4.99965791806402
H         3.78575807622983    3.38359102767093    5.17171639827025
C         4.86215043022831    4.86672783760472   -1.27147733916908
H         4.80272447565198    4.37828642712673   -2.24029624154109
H         5.51500856731543    5.73215937598965   -1.35998123699700
H         3.86447359773409    5.21142699712154   -1.00374895202086
C        -1.11319008071777   11.75390618929401   -1.84190523576028
C         5.40719745335222    3.90849092843313   -0.20608021805139
H         5.46457675733471    4.46308173761784    0.73374725445077
C         4.52125191873821    1.42651119732701    3.72580990923620
H         3.53145033678005    1.30851855209613    4.15532807461102
H         5.25077754524751    1.11571479097036    4.47013016989825
H         4.61376422166977    0.77300045782513    2.86107789468895
C         2.58473519718776    5.55814413258077    4.68516593766158
H         1.88292388928880    4.72862400205778    4.83748672647388
C        -4.53378134276290    3.39632699921737   -5.37930785697562
H        -5.43457313286846    3.77219679168290   -4.91597576061588
C        -0.27063851671414    9.27525293360919   -0.19821964692886
H        -0.25638253918414   10.15357258926368    0.43091469477058
C        -3.32560972930147   11.94820711293681   -2.36535584948036
C         1.28520196593279    2.35871801462132   -5.96450505247420
H         1.92243933796416    2.78150279031905   -5.20196384967663
C         3.34564391307230    8.35953671501866    5.18814110137337
H         2.52640697114547    8.68649731758697    5.83178909277053
H         4.02189903928133    9.20620612717355    5.05170123169317
C        -0.37033445540997    1.29597882918026   -7.99227522971853
H        -0.99976976039230    0.89621215785395   -8.77350097138051
C         3.31566132007288    0.89146011746527   -1.08791933954024
H         3.19989526254630    0.22502738561380   -1.92890160599616
C         1.81225661201918    1.64414703711459   -7.02191370544878
H         2.88118449355845    1.49572945965790   -7.08008435940827
C         4.79466571407665    2.87614706173577    3.33637586621573
C        -5.59057352359025   11.31088889630568   -2.73526985804677
H        -6.60735648529557   11.56147182955503   -3.00039781759469
C        -0.45806812885551   14.40954256176045   -2.19337805487200
H        -0.17594428618588   15.44453794743005   -2.32092849522677
C        -2.17715271143067    3.12913610893235   -5.39318469162348
C         3.94915845394734    7.44853634729783    2.94184535886027
H         4.64911056555679    8.27515928832595    2.79805094601337
H         3.56582705646003    7.16232867832177    1.96045501416798
C        -4.62884611610620    2.69207993450364   -6.57872797293744
H        -5.60061995483947    2.53982923943033   -7.02526281567751
C         3.13603012765063    6.01884853496223    6.03883102434663
H         2.30345199512579    6.32855784420613    6.67410397014928
H         3.65301232175075    5.20550969955201    6.55061805397265
C        -3.50339039341687    2.18307504877165   -7.19414811479554
H        -3.57863417717838    1.62756331771901   -8.11728020068285
C         0.24317981244508    2.08805733705801    1.66512556400462
H         0.35036365239198    3.11928857859103    1.33070445056950
H        -0.51018224220139    2.05512954088783    2.44895461838788
H        -0.10499509088057    1.49375988956074    0.82443431831185
C        -1.76800856641175   14.02521729089160   -2.39669101682823
H        -2.51869855129196   14.74515617382464   -2.68748391571844
C         6.81581064054401    3.45624203084447   -0.60131305761278
H         7.19660749883093    2.68909187648958    0.06849292619900
H         7.49593116821331    4.30445348270642   -0.57179792128107
H         6.82437477606621    3.05583501814915   -1.61131068166192
C        -3.31573461333844    3.62202337266074   -4.76967750538310
H        -3.25007710078794    4.15734644701066   -3.83437724864436
C        -2.10481162061762   12.68876064675685   -2.22513784515744
C        -2.26564560196669    2.39601604148415   -6.60070109896813
C        -4.62609757575952   12.29758667191904   -2.70596511158388
H        -4.87318642805422   13.32249556645419   -2.94044733249406
C         1.83715684657262    6.73487534872732    4.06050453763959
H         1.03344405073284    7.04129215326485    4.73385185920973
H         1.38146180691021    6.43759618951573    3.11418111082733
C         0.20643156666801   12.14426321311694   -1.65698246613407
H         0.96671366551729   11.42428049148376   -1.39308261330309
C        -3.99097583566394    9.61693316520020   -2.07734382208580
H        -3.75499570445004    8.59468069545392   -1.82206978287712
C         5.24514498242847    6.77335433217857    4.93011569130396
H         5.85120762252537    6.01280619240332    5.42448433748674
H         5.89754123201782    7.62953728365219    4.74380355874900
C         4.09106067400732    7.19564706049068    5.83735157659809
H         4.48875885821991    7.50942716391692    6.80881904621212
C        -3.01208437490770   10.60149108238755   -2.06277034750098
C         2.79781557785777    7.89897197594988    3.83849686526521
H         2.26580852284661    8.72608517276324    3.35704301533916
C         1.38347358619403    0.12932559864459    2.73036700796174
H         0.87744422186384   -0.49161354294018    1.99638200272734
H         0.76848439624410    0.15088649240791    3.62750762005804
H         2.33378207532669   -0.33992779345627    2.97325311856952
C         0.51518250244042   13.47830072101210   -1.83435100465414
H         1.53482965004850   13.80839018121472   -1.69564182571500

