83
CSD_code = EGUZEL | q = 1 | S = 0 | Stoichiometry = C37H42MoN2P(1+) | MND = 10
Mo       12.37514942357416   12.66856467597404   10.73516347451278
P        13.03814274548476   11.79641980396293    8.58160821513053
C        13.36403898174311   14.42516562733919    9.73487391697402
C        12.00179926863974   14.79213276381053    9.79564730642333
H        11.56443045834119   15.14099571002397    8.86404422839929
C        11.13694046124393   14.64607792883572   10.88118560152773
H        10.09648208013201   14.89678599253408   10.68965642593568
C        11.42021116949380   14.23148205216581   12.20766674735740
H        10.57122538726399   14.21245949833490   12.88538744180656
C        12.65133517919267   13.85037197822209   12.74886270052065
H        12.64661247602237   13.57235389499327   13.79967892566212
C        13.91616046094179   13.78666513948591   12.10891800172640
H        14.73676974598735   13.45868738134938   12.74233825434512
C        14.24772335589969   14.06674923585409   10.78539377310488
H        15.28945317051043   13.93961663230160   10.50266635932869
C        13.96539078568061   14.36986416170135    8.38107957101238
C        13.92361531327788   13.13820790912290    7.71857403456830
C        14.54967293862834   13.01255682998026    6.48181647352447
H        14.56708643101367   12.06214311244212    5.97173665294395
C        15.17052513391856   14.10581024286481    5.90316799534912
H        15.65110938273738   14.00116709778783    4.94263509473053
C        15.18084384325079   15.33045419582115    6.55095310600922
H        15.66187862094280   16.18100869444378    6.09389373193568
C        14.58851414067174   15.46157189763946    7.79545006329266
H        14.61297564388808   16.40786042293850    8.31683047988039
C        14.24779922379920   10.40069799600936    8.45766253626073
H        14.57459312678235   10.32080498189639    7.41438290322600
C        15.45064897682097   10.75208693710913    9.32655531384478
H        15.13394142629734   10.89852910764408   10.36024668211780
H        15.92787029924414   11.66481575788011    8.97070079690698
H        16.18701990281988    9.95177391966656    9.29921408777600
C        13.59915566206207    9.09413563549252    8.89731833776563
H        14.33734114791747    8.29417753334547    8.89973021006456
H        12.79236688623167    8.80530522999366    8.22756665428913
H        13.19421403721066    9.20111497930218    9.90297695318979
C        11.64508213403474   11.33059211651166    7.43691661690980
H        11.11551746882105   10.54049876256368    7.98953543530551
C        10.71527851388998   12.53249876604002    7.29163294599508
H        11.22662248321236   13.34758132973829    6.77976879920288
H        10.37732994296302   12.87903865804622    8.26819321111749
H         9.84159267810040   12.25918116680819    6.70351834380038
C        12.03914042853496   10.80680421591297    6.05897392038529
H        11.14825154982506   10.43508433825978    5.55555308270248
H        12.75228024677734    9.98871529546123    6.11557154246076
H        12.45411993658244   11.60293216361154    5.44629560356183
C        12.84000342193132   11.01112635838405   11.71690063867068
N        13.02352091861545   10.10409908582217   12.43562739887553
C        12.96914537750620    9.06063360716900   13.30415869148100
C        11.82985065023823    8.93111461845672   14.11344938113723
C        11.77367043077207    7.85567895150721   14.98468946663541
H        10.90649872521491    7.73503743594759   15.61601354370000
C        12.81422636931996    6.94491439080497   15.05895180724359
H        12.75262855244894    6.11542811076482   15.74572524823619
C        13.93571224695416    7.09835325609591   14.26214213918507
H        14.74656103005972    6.38963851469276   14.33177960231102
C        14.03530465064109    8.15594386583962   13.37238114020472
C        10.73288063689580    9.94791914969714   14.04684770858883
H        10.47951737343427   10.19103222637034   13.01485492748691
H        11.05297018417075   10.87090120555495   14.53253435813465
H         9.84467543264785    9.58531462993680   14.55620025966401
C        15.23675826297086    8.34086076093005   12.49964493164769
H        14.98089077415134    8.14992432590186   11.45804884090599
H        16.02863385868519    7.65746180361066   12.79148455746814
H        15.61008826560998    9.36172797912800   12.56934527188127
C        10.67126913844903   11.68775337935397   10.53789407214362
N         9.63499440136254   11.14193914272406   10.48104468655192
C         8.55339804027002   10.32545269084487   10.39135261887944
C         8.72153436153290    8.93551772725396   10.46081729915803
C         7.58576299785618    8.14262249716300   10.37813433706607
H         7.69364111890882    7.07003730273436   10.43250802956542
C         6.33119776052396    8.70519614755923   10.22757040047835
H         5.46180213324944    8.06964328115229   10.16497257490062
C         6.18495920134097   10.08146611650437   10.15529346886512
H         5.20324984375133   10.51345304783714   10.03607306222942
C         7.28797497739470   10.91274357214240   10.23733270673104
C        10.07199733950795    8.31031289086965   10.62982619350216
H        10.87072221287923    9.03911885502342   10.49912829491689
H        10.20442072692969    7.50683183915760    9.90810620071104
H        10.16093070874765    7.87505396536500   11.62501059932069
C         7.16563052067972   12.40231918964798   10.16004966810593
H         6.12218790907501   12.69996002437245   10.12005043263440
H         7.66887975728057   12.77851373521950    9.26910672965153
H         7.63145701758701   12.86801254725185   11.02830615824108

