59
CSD_code = EGUZOV | q = 1 | S = 0 | Stoichiometry = C27H30MoP(1+) | MND = 10
Mo        3.43231409938978   19.54319096836001    4.19345337698218
P         3.94739165975181   18.10296174545575    2.29305084230626
C         4.98036261486664   20.75899428064568    2.90430666530911
C         5.59625359104712   20.34116830465793    4.09325852350626
C         5.09902518735253   20.44685759143025    5.41896903023690
C         3.98073917881393   21.19752800293454    5.87351854540676
C         2.94615504755824   21.72713186802863    5.12495306690989
C         2.74177069001911   21.64511251649894    3.72118608211747
C         3.69236903105835   21.29470583091270    2.72654175949879
C         5.58801737570864   20.22628936734095    1.65715029038554
C         5.14559875726332   18.96881936681077    1.22700291381782
C         5.61353544528766   18.46314098234427    0.01701832369924
C         6.53888189870805   19.17878700879928   -0.72322555230860
C         7.00027572863690   20.40490001663446   -0.27318034489098
C         6.51630149097097   20.93545486774468    0.91122475752361
C         2.37199216950123   17.85464775663373    4.80973727079502
C         2.07757826644375   18.82680197310703    5.61769431206236
C         1.38425679528663   19.18733537640733    6.82038171079680
C         1.75892642946290   18.61405977153360    8.03800890009407
C         1.10688026724259   18.97537893993371    9.20105575229664
C         0.07018654341604   19.89489024857484    9.16561423595387
C        -0.31304010392395   20.45837945769210    7.95913629950108
C         0.34548259289906   20.11927435491608    6.79250041269308
C         2.60304568186646   17.67213594127772    1.09167032399657
C         1.97639056010477   18.97537547367748    0.60487349570695
C         1.54196741412145   16.77129598533529    1.71193806076485
C         4.72937220179018   16.49002798974693    2.78254600586360
C         5.80928687316905   16.78838106625084    3.81933375149218
C         5.28737212111851   15.64128733805459    1.64568301818583
H         6.56924754842280   19.86828289584542    3.98236643113180
H         5.75275254081820   20.06065811370297    6.19700564583204
H         3.87490975903937   21.27105661477458    6.95170873859726
H         2.13225356760721   22.16992089244287    5.69030557262667
H         1.81456667392230   22.07600907293084    3.35372274768298
H         3.39398166956898   21.47266536299423    1.69630180240280
H         5.25225518804461   17.51940912060418   -0.35967627422136
H         6.89904137328492   18.77740711344739   -1.65771976594394
H         7.72554074472108   20.95570495813925   -0.85102784882685
H         6.85081507325622   21.90276322465868    1.25614139856088
H         2.07803439798469   16.81751136242575    4.70580447696224
H         2.56847996128271   17.89833452154586    8.05798290081784
H         1.40510654621845   18.53283961635864   10.13909852457306
H        -0.43987696270859   20.16919512312344   10.07563557279274
H        -1.12534607127759   21.16845359185326    7.92790511050182
H         0.04219003857922   20.54566604301380    5.84535203658083
H         3.07188537515613   17.15789448618808    0.24388307958620
H         3.91906698819189   15.93630912312655    3.27650143001030
H         2.71632469829517   19.60810485585210    0.11621762642778
H         1.04871404959267   17.28212550238243    2.54078567787136
H         5.38753611337875   17.33877713751430    4.66692442594747
H         5.59926505900240   14.67714583089275    2.04285840811595
H         1.18541918383084   18.76630780366258   -0.11178157040871
H         0.78640377941706   16.53430729657109    0.96548679170830
H         6.23631592377671   15.86010044986158    4.19216363075904
H         6.15933860616227   16.11302700499181    1.19946167765299
H         1.53895568373552   19.51565866435977    1.44898351413731
H         6.61304921123059   17.37310812982805    3.37301443717085
H         1.96426422087199   15.83322435130655    2.06602821589036
H         4.54261944990177   15.45491734374340    0.87526375402665

