79
CSD_code = EGUZUE | q = 0 | S = 0 | Stoichiometry = C40H33AgN2P2S | MND = 4
Ag        8.72921222393061    4.82932713272588   10.58970674754745
S         7.01209250164367    4.75763978956225   12.44387215205750
P         9.78551527141390    3.60250314857407    8.70057643699739
P         9.41669419566676    7.30955110166586   10.11062605841351
N         9.58861645208303    4.97416886895377   12.84531759571587
N         8.15321136854885    5.46669723737698   14.67795461064152
C         8.35616905049588    5.09784769797311   13.40820086905099
C         9.20276046265126    5.71536662761983   15.42031661555065
H         8.99554347217410    6.01752534821273   16.44061902080705
C        10.50672428862127    5.60134013832920   14.94336117052638
H        11.36634880769090    5.79940351818932   15.56103786535767
C        10.63132506080189    5.21871575560357   13.61934628513324
H        11.60495474366039    5.10464407711480   13.15480483357387
C         8.99054001304042    2.02529785267350    8.24315761180807
C         9.23237972053259    1.36467356104861    7.04276508006154
H         9.87769801669601    1.80814312507796    6.29766000752971
C         8.62593836643604    0.14709934036776    6.79528815938103
H         8.81078939587768   -0.36295654777694    5.86097075796879
C         7.78292016230933   -0.41938586283628    7.73860820119594
H         7.31194554113500   -1.37017128914011    7.53750892401038
C         7.53848865337308    0.23644324058930    8.93392972822738
H         6.87567211849080   -0.19898522235012    9.66671470042628
C         8.13959891919970    1.45615477557269    9.18484368264905
H         7.94385266009026    1.98871313104686   10.11208618740551
C        10.01566105907808    4.41584171003862    7.09237269388700
C        11.18987829310349    5.08412814748987    6.75938211200688
H        12.03501222685293    5.06232907344236    7.43362861059618
C        11.28521481817086    5.76234066987876    5.55846041603660
H        12.20354421132553    6.26954236175557    5.30166802950548
C        10.20888161830315    5.79387233142108    4.68807043331661
H        10.28966611116208    6.31942156692663    3.74840198154499
C         9.02581177627790    5.15725567893222    5.02815838550175
H         8.18076409566802    5.19060579771357    4.35616390155458
C         8.92444818938631    4.48058684211546    6.22774945026818
H         8.00106886044229    3.98815653579512    6.50366402865884
C        11.45101771781948    2.98728815292816    9.12286304972449
C        11.82064968039275    3.03468537854108   10.46294177973639
H        11.12552786413843    3.45624189624731   11.18388618156117
C        13.05617617451576    2.55920195195408   10.86267785791508
H        13.33966217451793    2.60083082090242   11.90415762779605
C        13.92823680788480    2.03089488791528    9.92487527991860
H        14.89537187014232    1.66150340166640   10.23279049494948
C        13.56011215530032    1.97352838593144    8.58960098785935
H        14.23969179201299    1.55724954576099    7.86017772837859
C        12.32485664584384    2.44547422914991    8.18534341318263
H        12.04378703554913    2.40054292724020    7.14304548537846
C        11.02714446958891    7.36362457045330   10.95726323929364
C        12.00459058047264    6.48535265431205   10.49137197421999
H        11.78353666001433    5.86923580754141    9.62738509155682
C        13.22982161783000    6.40088523662297   11.12175504996968
H        13.98043932794749    5.71575557545955   10.75340121963393
C        13.48682287813888    7.18671752445416   12.23589542500267
H        14.44221752433254    7.12001674435917   12.73550408312615
C        12.51320142639561    8.04734347864766   12.71437377378890
H        12.70890627686795    8.65041934500831   13.58912653590218
C        11.28399765657400    8.13637526884528   12.08307018235275
H        10.52386329530367    8.80027334931989   12.47004087403057
C         8.55042600730348    8.73834593231941   10.83791810764213
C         8.91726117923788   10.05048055483040   10.54916789742211
H         9.72594051683876   10.24468924034445    9.85787026596899
C         8.24472349013258   11.09838057476265   11.14891596772257
H         8.52953487472758   12.11656929527379   10.92542866564304
C         7.20885687723849   10.84670992814848   12.03610497705280
H         6.68830432225714   11.67047886427650   12.50229419929090
C         6.83928413673377    9.54297536630220   12.32100454618988
H         6.03142181931223    9.34358825435201   13.00900740800096
C         7.50458563040906    8.48887337420506   11.72002998011513
H         7.21181855404570    7.46864096018491   11.93198950722841
C         9.82290557100432    7.96972816494596    8.45784587680497
C        11.03981911836878    8.54293467202153    8.11053253427814
H        11.83997863634155    8.60030466749491    8.83534234291709
C        11.22428581214567    9.04478189551649    6.83419031501872
H        12.17038868580459    9.49442530511687    6.56838384066358
C        10.20193867925525    8.98240200003593    5.90269120704131
H        10.35080286819459    9.38251534766347    4.91062882262558
C         8.98955871149330    8.40365055268134    6.24269477324511
H         8.19233229108936    8.34974694912635    5.51616195823598
C         8.80408920007084    7.89340714548407    7.51218503385951
H         7.86526866002103    7.42979255996758    7.78957109290615

