92
CSD_code = EGUZEO | q = 0 | S = 0 | Stoichiometry = C42H40AgN3O3P2S | MND = 4
Ag        4.82283864069355   11.86643428538001   11.46287949372343
S         5.48677718576119   10.60945898667812   13.72237231883469
P         5.93723493095071   10.08929517469342    9.89295557034652
P         5.37524501892484   14.34088562617715   11.08070858217035
O         3.00898331826651   11.30071637777108    9.97552282165651
O         3.03352984773028   13.40654125574975   10.29471571900469
O         2.51177882499218   12.08811251265990   11.88856466341974
N         2.90783421368901   12.27159172333632   10.72596354813291
N         3.26454399736031    9.49319036292836   12.71599882429893
H         2.83789824047573   10.39591602131578   12.47709921324220
N         4.55275451392996    8.12071866953941   13.85962449165285
C         4.40186600722996    9.38031349739788   13.40993151014889
C         2.49969948444725    8.26523878482579   12.75536508481838
H         2.15645327618682    7.99724791458116   11.75467821941738
H         1.62820296763053    8.37627511104496   13.41167835362393
C         3.51672220399987    7.26010578147192   13.31898652724678
H         3.09859211393302    6.62916525401929   14.10741530181629
H         3.92437364795280    6.61691833907098   12.52901060910915
C         5.77659152870114    7.61156797254928   14.41748751295630
H         5.53145878818648    6.76640288304810   15.06609891485272
H         6.20895045215665    8.41127289176049   15.02480190847618
C         6.78479994751573    7.19488692936256   13.34315231001343
H         6.39943522044751    6.33667562911571   12.78822031009138
H         6.90027509488974    8.02483712622206   12.64283556911363
C         8.13557891752689    6.85401628886626   13.95499657669369
H         8.54150034932151    7.71786512849271   14.47552544125060
H         8.83819569145516    6.55924821128114   13.17951863302741
H         8.04091285868383    6.03566361919456   14.66560509704699
C         5.75161379768204   10.68120214477783    8.17950659599708
C         6.03684040357995   12.02751358712290    7.97277241123834
H         6.34300734153563   12.63912896897030    8.81674710265295
C         5.91853785735458   12.58394513916790    6.71497728099248
H         6.13070483893820   13.63251651547508    6.56798289946773
C         5.51120643095409   11.79534580640536    5.65048127350680
H         5.40767041133286   12.22823205698979    4.66637256186215
C         5.22849584675532   10.45466804043013    5.85005940712770
H         4.90859425485450    9.84071144274921    5.02029945529382
C         5.34708563985677    9.89321907274227    7.10959050672239
H         5.11696877930995    8.84757140070540    7.25746912744623
C         5.31630713760913    8.38052822624722    9.78587645342871
C         3.94672587385882    8.22440342749841    9.57102726612743
H         3.33335632277222    9.10592259960450    9.44428145987794
C         3.39467574502194    6.95818443101696    9.51865747300639
H         2.33631933904599    6.83701261982664    9.33511832447522
C         4.19651755949169    5.84016226006715    9.69772342165927
H         3.76299981546653    4.85115549628731    9.66071968539430
C         5.55463316120402    5.99407038009812    9.92041759270026
H         6.18210552633330    5.12443244912760   10.05584119266056
C         6.11766184109637    7.25854585048558    9.96427447120611
H         7.17949148409598    7.36895714963352   10.13208686867872
C         7.74517510054469    9.83250553931864    9.97100887786436
C         8.49206779586673    9.44588642445352    8.86258841482267
H         8.00071053155323    9.29453109831298    7.91146396918009
C         9.85672645715996    9.25899895130815    8.98196339367329
H        10.43446754103418    8.95875929281508    8.11975846648273
C        10.48432931391754    9.45595032884219   10.20246843631644
H        11.55091705254575    9.30990686568273   10.28956975097282
C         9.74587703628669    9.84516641273676   11.30742775039061
H        10.23256930248863   10.00598701615918   12.25786531872944
C         8.38051846908587   10.03638105505844   11.19181163906564
H         7.79890415203262   10.34875547107580   12.05068904571051
C         5.44166468808492   15.24751854335976    9.50120321221578
C         6.66299391929364   15.49442924565880    8.87914003329894
H         7.58652733477664   15.17963585030478    9.34614606786418
C         6.70281725913702   16.14695981126069    7.65985552348895
H         7.65581647710832   16.34005055208361    7.18767691926756
C         5.52819398068386   16.54971225258540    7.04619350448913
H         5.56240372723343   17.06065980552555    6.09473252378391
C         4.31022217980799   16.28627061026816    7.65256985329906
H         3.39163643707069   16.58832507738864    7.17094017932915
C         4.26224433795065   15.63492548090431    8.87107717094018
H         3.31786876755102   15.40349556234917    9.33647004961747
C         4.31883915647436   15.37140751249527   12.14329228984587
C         4.00084226512790   16.69662107404388   11.86886457676267
H         4.35420845935191   17.16521937224998   10.96093248262619
C         3.22149968471220   17.41461235424405   12.75850296434208
H         2.97098498870457   18.44315346364136   12.54032620318818
C         2.76114708195377   16.82227048322607   13.92299742965621
H         2.14742386921190   17.38711309087473   14.60963528596729
C         3.08592398842010   15.50541988498394   14.20463658321802
H         2.72779029234399   15.04017826944951   15.11126749622849
C         3.86364628845250   14.78402930896376   13.31911406512937
H         4.11686993254181   13.74901869133149   13.53261298706407
C         7.00407752967618   14.83249997046045   11.76678170320214
C         7.35620601162821   16.06713200647112   12.32921506749233
H         6.66557251010886   16.88836673543521   12.41945277182622
C         8.64091844584041   16.15158059876270   12.76098514241053
C         9.81268580860759   15.49407422465735   12.88133249120883
H        10.78183326753672   15.72652280930264   13.26309090254586
C         9.23373743080875   14.41717305458391   12.31200411641409
C         8.07973690161487   13.93384269535134   11.78145966701186
H         7.99455753456845   12.92696172806373   11.39687971533235

