113
CSD_code = EHACAT | q = 0 | S = 0 | Stoichiometry = C44H65FeN3 | MND = 3
Fe       14.09162741656773   10.75340175788499    8.65769832714189
N        13.27972608744123    9.42388768357611    8.96905581037576
N        14.62493000427629   12.17169112135079    8.16714081309915
N        16.98746395028755    9.54387029108186   10.30872935815814
C        16.44255030882702    9.85017157560813    9.16944569718112
C        17.55330786654275    9.91634435710114    8.13524062664826
C        18.84010741231604    9.48938020581670    8.88273384171577
H        19.10834970694420    8.46469296177821    8.61977199377102
H        19.68110440881558   10.13269482050121    8.63296193925629
C        18.48278421083378    9.58022936366096   10.36910081837911
C        18.91499162428669   10.92437926850395   10.96353976335604
H        19.99704116779143   11.02005801542644   10.90139462700022
H        18.62799688117507   10.98624448703378   12.00974299665796
H        18.46694138686103   11.75484782425496   10.42461769329608
C        19.09927187993199    8.47037430131098   11.21350293645056
H        18.96641306646848    7.49270038548808   10.76229677496756
H        18.66579628868959    8.45754618549169   12.21157362315081
H        20.16797556738796    8.65257540319299   11.30732779553464
C        17.17200767023175    8.92283990846419    7.03211325225888
H        17.92295754123313    8.92416360848526    6.24447155715854
H        16.20894668932660    9.20782859812055    6.61115325567703
H        17.08247039274508    7.91380248573004    7.42967175824802
C        17.69998620814474   11.30401386631851    7.51404985478605
H        18.49542528215734   11.29705829736685    6.77071222328571
H        17.93617920822215   12.05027937517249    8.26762633875930
H        16.77339671654724   11.59575212920627    7.03008913031617
C        16.24651710121806    9.11465492997957   11.45188566428109
C        15.76339152337984   10.02197682570250   12.39852536427373
C        15.15864234656559    9.52581170738441   13.54817001529150
H        14.79884127086969   10.21417066451439   14.29710317890046
C        14.99991069825292    8.17029322629860   13.74473423969808
H        14.53849845122634    7.80253913208561   14.64903188706741
C        15.39818728472274    7.28786846624294   12.76021423915845
H        15.21820697975204    6.23301019449974   12.89147217958005
C        16.02430660088771    7.73749868011042   11.60679831702376
C        16.37020540938651    6.74118008996906   10.52429284594296
H        17.06691849374495    7.20121163063343    9.82044805506997
C        17.00875508905441    5.46212799426045   11.07285168164047
H        16.26794252656630    4.83305678102328   11.55889389599687
H        17.79244111599984    5.68831506902843   11.79311711350434
H        17.44366431337455    4.88828314237101   10.25677041730267
C        15.09800190879322    6.41103810695281    9.74155536893812
H        14.32235651752229    6.02603324811481   10.39917207767921
H        15.30696422740246    5.66227245028388    8.98007836097917
H        14.72205255567062    7.30985615882085    9.26110394126059
C        15.78618462236173   11.51561584054655   12.18195853072881
H        16.36937493289884   11.73591283002403   11.28611349124297
C        14.35210749376280   11.99347075351789   11.93102877109297
H        13.98274983923016   11.58016794813956   10.97804299152288
H        14.32116901644986   13.07765264158029   11.87315424899660
H        13.69080185325647   11.67002171393160   12.73101942025951
C        16.39496501368229   12.27209044318181   13.36606146680240
H        15.73480033316402   12.24690085773107   14.22917861400793
H        16.55426989022430   13.31370091321408   13.09639887590489
H        17.35129461139569   11.84433818696397   13.66024096794466
C        12.48012341328643    8.34845533169888    9.01651506488292
C        11.83482965050513    7.98606579578646   10.22819177109633
C        11.03379617119623    6.86272658231984   10.25713228322391
H        10.53335730999893    6.58078673129020   11.17086047004379
C        10.85674554933514    6.07805030377023    9.12869399404447
H        10.23490871421641    5.19587835829179    9.17520731771348
C        11.46594503560703    6.43789854704116    7.94018168867065
H        11.30696029475057    5.82961593160443    7.06105785199700
C        12.26544234387107    7.56142006776923    7.85511186837656
C        12.88316549982815    7.97011352290749    6.53905654730152
H        13.43668250312318    8.91114516677500    6.71095995979306
C        13.87002496981344    6.91993010125023    6.02740778211774
H        14.65978026200743    6.75615655001611    6.75555202222532
H        14.32248343290258    7.25017954460478    5.09397814186265
H        13.36564268303355    5.97298573886296    5.84758999612714
C        11.79715226104020    8.23850464694878    5.49493459038460
H        11.26025811658593    7.32442510806384    5.25116322379948
H        12.24017435265247    8.62722007766875    4.57956989024704
H        11.08075722208948    8.96435839002812    5.87353282131170
C        12.02357930062416    8.89103535911369   11.42212591174400
H        13.07893258573105    9.19404840139265   11.43277138906014
C        11.69846832720856    8.23244352591389   12.75925592848166
H        10.63037873499035    8.05019197307741   12.85680096154114
H        12.00278289915717    8.88803830112099   13.57276316284366
H        12.23002233764465    7.28963299408115   12.86394895564823
C        11.16857745729777   10.15102403329166   11.23476076353068
H        11.48557605566057   10.68790873922648   10.33802631609332
H        11.27132118858910   10.81500916311552   12.09066568175330
H        10.11941122393096    9.88129477859267   11.12763023015639
C        14.88557500080949   13.28478968782113    7.46127344052636
C        14.54598998767273   13.32101560246213    6.07866583445661
C        14.77990158251600   14.47274715451746    5.35520866964409
H        14.50800345674801   14.51554668852872    4.31153478934521
C        15.35724439616896   15.58733799671454    5.94206099134626
H        15.52973605118169   16.47908318170612    5.35746349489111
C        15.70911330188778   15.55108529325634    7.27848775090863
H        16.16025805429689   16.42310328691882    7.72998793392695
C        15.48989955104950   14.42310193897574    8.04651848629461
C        15.85634563254362   14.40270251719100    9.51028918962104
H        15.70565651514879   13.37617995629919    9.86272017997559
C        17.31800632829163   14.78994865130337    9.74372006027010
H        17.97801746218534   14.20485232796383    9.10625048612799
H        17.59346939408269   14.61580410029958   10.78303059014322
H        17.48309680932022   15.84166300020709    9.52278596602793
C        14.92874568411669   15.33248653557416   10.29696282871653
H        15.01984760064650   16.35477760666389    9.93594877039963
H        15.18145330479729   15.32198479376354   11.35640062325451
H        13.89308000417625   15.02050909434454   10.17868592466244
C        13.89737661618646   12.10409013641751    5.46222118074512
H        14.33259211796914   11.21429302129232    5.95476462038094
C        14.12494944116495   11.97665526363964    3.95814735179345
H        13.55196965161878   12.72172805191828    3.41067225188301
H        13.80221687110242   10.99375446441967    3.61994382442584
H        15.17856953873305   12.09573871370439    3.71440910221739
C        12.39627344495181   12.10913230823827    5.77955091968982
H        12.24512338236512   12.01958967092480    6.85963281299142
H        11.90278582670392   11.27213240875519    5.29160038028397
H        11.93955213003698   13.03522387551233    5.43493593021663

