166
CSD_code = EHADID | q = 0 | S = 0 | Stoichiometry = C80H79CoN6 | MND = 4
Co        2.79145359735694    8.64314106603700   11.15624253382292
N         4.33441854136114    9.87574413904123   10.99281968405988
N         3.37539976684779    8.10565342899900   12.95727389029620
N         1.94088680950252    7.71628550162914    9.88979018231646
N         1.10900572004747    9.41557730695276   11.26422725231598
N         0.23784370768206    8.92207788042649   10.43564430859446
N         0.66750426944140    7.99887985980950    9.70228500055348
C         4.87753768981975   10.52237012144805   12.09324877460437
C         2.89869112508742    7.11908900456476   13.72881970168981
C         3.91161576612364    9.05148681907466   13.81999679103248
C         4.91799941196811   10.41444680065695    9.91783075157810
C         1.79946132060089    3.20014732381648   12.37690040477747
C         0.82027025060447    4.11933464827063   12.73194135559112
H        -0.22175487173437    3.83619708890343   12.69450598165012
C         5.78759805597930   11.51737960171449   11.65335567726823
H         6.33550808303251   12.18215089971975   12.29306513417038
C         5.82432752671598   11.43440645366269   10.28725502206472
H         6.41897080926837   12.01068362012135    9.60372083197392
C         4.92857208646440    5.15350598153683   13.02084176784175
C         2.41818274062883    6.59508144638627    9.07782176912682
C         3.48479030132791    4.86084827304543   12.90194113329623
C         4.66481777084749   10.15488584302943   13.41862442657839
C         1.14882573493931    5.39761471360252   13.16873209244652
C         5.43080706514892   10.87402229678738   14.47028545940281
C         5.87443006701310    8.80081327674778    6.68772728567105
H         6.74279691085648    8.29492937122274    6.29131237029031
C         3.70385255134957    8.63591557048963   15.15863793846207
H         4.00482639417620    9.18245374061852   16.03167603037832
C         0.38684704686471    1.68360932844738   11.00827155881071
H        -0.15061885578715    2.54867967569241   10.64812675872375
C         2.48780822524592    5.78979727039213   13.24161659303970
C         7.13127444455655    9.03178438916676    8.79050492690744
C         4.79776542243016    9.92847235819460    8.53590265734467
C         8.30740092243167    8.18575748776632   10.71085042395527
H         8.28833906291625    7.66496035726305   11.65603113491441
C         3.13034066947175    3.58848272258189   12.47204623790083
H         3.91149760552089    2.88986571931025   12.20894040661959
C         7.12589929273292    8.37858094266358   10.01822518982696
H         6.20037792066800    8.00844234502386   10.43240673431258
C         1.43723459303862    1.85579929956747   11.90635926687874
C         0.60637842725109   10.49245846691641   12.12581654781248
C         3.70004383454969   10.19587462708595    7.71461607347864
C         5.77509776056966    4.92271591568914   11.93971493072239
H         5.35962322207448    4.58228953935417   11.00305246917009
C         2.58680865487577   11.07302120923848    8.12197745135833
C         1.51077767897823   11.71404118042761   11.94700827658180
H         2.54322034700727   11.45731196298352   12.16422587520863
H         1.19884162095850   12.51595177989083   12.61037904880967
H         1.45150538442822   12.06880267468269   10.92293719494115
C         0.01655090999168    6.27544390865939   13.53542365213196
C         5.90151208801240    9.24648831420917    8.00103386836663
C         7.13858261275027    5.11980943389104   12.05416474104319
H         7.77924275314844    4.94438899150470   11.20196800616344
C        -0.26087296974083    6.56932801796241   14.86526243672419
H         0.40164980709588    6.21256814865818   15.63967296918456
C         3.68985537267548    9.71808192423937    6.40655216367844
H         2.82715672732566    9.92456172326967    5.78929766277661
C         2.06453897860468    6.87492542543524    7.60461289503661
H         0.97886626772419    6.97768662072284    7.54288032818791
H         2.50961875950897    7.83115398194177    7.32552556004827
C         3.05438457408729    7.42978787958366   15.09726003283906
H         2.74675041878430    6.80847819567918   15.91694996125582
C         2.13776326734363    0.73487685379830   12.34382855114347
H         2.94410065298537    0.85416586081934   13.05316907758272
C         4.90023773683359   11.97149334522044   15.14751043231527
C         1.71420310396637    5.32444901581686    9.56757538171907
H         1.87949637687983    5.20804645418245   10.63295670588603
H         2.09876850517931    4.44450898176656    9.05989509267334
H         0.64532283450481    5.40320791612440    9.38415179495641
C         4.76373976328968    9.01144937089236    5.87726871712706
C         0.64442271373278    9.98771847840499   13.58255753811267
H         0.21055927279364    8.98826885913916   13.60696135876229
H         1.68895155757759    9.89677185779751   13.87985865705606
C         2.85566183605286   12.35879576233062    8.58322243355832
H         3.87884510382827   12.66658671851611    8.73939575809811
C         1.26386290067446   10.69577725029189    7.91079933864485
H         1.03707079912059    9.70012740972117    7.56195100138976
C        -0.86157892837497    6.70899323519492   12.54762236683829
H        -0.65611380468242    6.47982565211687   11.51307751442060
C         3.92651816570432    6.48694632929640    9.29396462844730
H         4.44799063308790    7.26165096097749    8.73757273425658
H         4.29099235402188    5.51702409688422    8.96681554037353
H         4.14659523995023    6.60015092773668   10.36043138129320
C         7.43917562717180   11.05150690045027   15.77640257327180
H         8.43011665074983   10.69164274422598   16.01587325574926
C         8.34319701757666    9.48349284803076    8.27401298594087
H         8.35386170610096    9.99661586923680    7.32252336635841
C         2.52591731220678    5.81666841596075    6.60728734408050
H         3.61610498629789    5.76527751493067    6.59715521962142
H         2.14228149492037    4.83566395608555    6.89146291935834
C         6.71370794951035   10.41561390737195   14.78102573536435
C        -0.82166487059583   10.86112051855406   11.71622952109337
H        -0.85202259383459   11.09049160653713   10.65500638386973
H        -1.14714969732949   11.73343255261432   12.27499036225055
H        -1.49563558585887   10.03276185883448   11.91141999830621
C         5.65298791356742   12.58450812727704   16.13826784047793
H         5.23746463290014   13.43276943045990   16.66431760574767
C         4.74858634115466    8.52572250393116    4.49011404541773
C         1.82374169802292   13.25132600670039    8.81114876664664
H         2.04629686750829   14.25132809291455    9.15493031622391
C         5.48653345910289    5.55713561530540   14.22959682534586
H         4.85248100768772    5.70157611849402   15.09025600879124
C         9.50565032730985    8.64977431562389   10.19602010295266
H        10.42497163386320    8.50291210211743   10.74384215552624
C         6.92214809830758   12.13518963313697   16.47015563740864
C         9.52069241447201    9.30132454111941    8.97449770053754
H        10.45172668905123    9.66681174200293    8.56587306701365
C         0.23314698701913   11.58389072782487    8.15763141273869
H        -0.78834391295594   11.27336572864557    7.99405478610214
C         7.30752247720741    9.26691136573592   14.02563029116721
H         6.63138969553861    8.41303095924382   14.01843611309724
H         8.25385046145033    8.96307174177681   14.46651276629932
H         7.48387668219048    9.55654134594201   12.98941599283464
C         0.04746063673736    0.42130271480763   10.55879176134625
H        -0.76574608157331    0.30138827144004    9.85764379775281
C        -1.98681105620235    7.43996090176587   12.88370045311555
H        -2.65783413782720    7.77234315453233   12.10535340159353
C        -1.39623587299942    7.28638828253825   15.20036804594960
H        -1.61645291918555    7.49023494371150   16.23853969372070
C         0.50934901092435   12.86820556725617    8.59559320920635
H        -0.29465844328291   13.56759732547297    8.77281036405240
C         6.85173033074672    5.74605447898034   14.34623569946437
H         7.26909737653058    6.05097618126211   15.29503875037687
C         5.33052595841480    7.30294974420721    4.16113032281739
H         5.77521167729142    6.69812895189016    4.93814574934280
C        -2.25907692364514    7.72707842325733   14.21085466446635
H        -3.14509307875231    8.28557650326835   14.47534945782415
C         7.68192748772315    5.53301728373765   13.25891757951272
H         8.74869808403040    5.67605134199039   13.35447304817573
C         0.74731551927933   -0.68802212162537   11.00342805691040
H         0.47961669812861   -1.67430363192647   10.65410734444347
C         1.79214364249642   -0.52728469871091   11.89800633179104
H         2.33870875199948   -1.38994113922703   12.25079396162600
C         3.54411515540544   12.50209242596891   14.79794763226189
H         3.58157240745397   13.01340469245714   13.83597191913821
H         3.20148148763876   13.20910835738435   15.54988693477028
H         2.82254746041224   11.69386751863006   14.71769954337117
C         2.03004607642222    6.14464713967027    5.19979878001763
H         2.43867207722920    7.10705821775632    4.88595049173524
H         0.94144260342316    6.23392069109413    5.21465472809114
C        -0.07830148650599   10.85834510715040   14.60781263163919
H         0.20739030940705   11.90573598260472   14.49059510904642
H        -1.15676286112701   10.78429179651227   14.46111561070385
C         0.25681018796041   10.41106059244631   16.02964303628623
H         1.32802008920868   10.52909853314876   16.20707566807578
H         0.02498621348706    9.34984811822747   16.13013877082379
C        -0.51860814115009   11.20661643038393   17.07199601750365
H        -1.58926050017578   11.07840849172349   16.93078247559030
H        -0.28911757121411   12.26685317710559   16.99149890816748
H        -0.26289941750772   10.87657728538866   18.07613871994887
C         5.32121965223406    6.84537118492960    2.85716377627881
H         5.77417494985529    5.89386329846807    2.61794999935217
C         7.72240133344927   12.82432036585815   17.53372691934108
H         8.48602640730783   12.16280851095268   17.93577170762026
H         7.08013488309152   13.15787026201183   18.34606315230787
H         8.21873437873779   13.70162938635964   17.11730612557765
C         4.16112745485976    9.27841898024885    3.47537864545337
H         3.72580714327948   10.23967430901925    3.70674381827219
C         2.43334861017090    5.07534091596107    4.19287549956143
H         2.09123188880678    5.34158120794207    3.19560554218506
H         2.00086625806953    4.11354742014498    4.46110597122383
H         3.51514837334460    4.97053128294332    4.16370634887359
C         4.73108761341222    7.60050831714815    1.85791423851602
H         4.72351359893159    7.24207969711908    0.83925609801028
C         4.15248267665352    8.81864235810218    2.17189160031858
H         3.69532168860647    9.41553744198565    1.39603719558291

