31
CSD_code = EHAFAW | q = 0 | S = 0 | Stoichiometry = C10H13Cl3N4Pd | MND = 4
Pd        1.42202041815873    7.06545916107771    7.85239175870401
Cl        2.75069425540641    6.35678681707213    6.17378045330925
Cl        1.27134446494454    9.12520497236894    6.93797291964104
Cl       -1.86905554456988    4.14720537830931    6.56015960897542
N         2.18745827034948    4.22071594664745    8.81639384321216
N         0.09910511356389    4.72050293970991    8.90570955895326
N        -0.95937656643504    6.76032495552359    9.45594997464031
N        -0.09038636447344    8.63790986583859   10.04204611521699
C         1.32509857891766    5.21634189210931    8.59467681712577
C         1.52182842662545    3.10261588993271    9.24798019893390
C         0.20632399709722    3.41206472534225    9.30702782257854
C        -1.11793386222267    5.48955298478107    8.78531662423158
C         0.10147677238876    7.58290226897907    9.24460855224631
C        -1.25975667125501    8.49785399820262   10.74321650491405
C        -1.81056195990817    7.31673874824935   10.38055964162065
C         3.61169214939602    4.31240090424310    8.64224372729078
C         0.81115200250699    9.75204735629434   10.15842037715462
C        -1.46446032134901    5.71367936032095    7.30027089729634
H         2.02800753813780    2.18668954330731    9.47408253542438
H        -0.64267624362517    2.82039841064125    9.57993402685839
H        -1.93053005919318    4.93281006451327    9.26960195906140
H        -1.60414373663723    9.23766910217699   11.43654366361412
H        -2.71713519306785    6.84057573556032   10.69216862889509
H         4.12090688442529    4.15512883404073    9.59440134993629
H         3.84144812841550    5.30612412158507    8.24705471421490
H         3.95016853455519    3.56740426927792    7.92233506381947
H         1.64054857711546    9.58965738542782    9.46363291380662
H         1.18276957415125    9.83362878823545   11.18097218168798
H         0.30461055997523   10.67624295716858    9.88007834713084
H        -0.59202244524730    6.14334262591659    6.76634184692862
H        -2.33031527814645    6.36921999714706    7.20302737257782

