42
CSD_code = EHAJII | q = 0 | S = 0 | Stoichiometry = C17H18Cl2FNORuS | MND = 9
Ru       -5.70940379414589    7.50699014177160   13.49911031538691
S        -3.26186410190216    7.41034051383876   13.68941873146574
Cl       -5.66615339345536    5.18942039772932   13.88414726937211
Cl       -5.68918038073395    6.99877793927737   11.19474215101922
F        -1.64341109704063    1.46822851774651    9.60008920236558
O        -1.52876706059331    5.51039253469539   13.18129533873483
N        -3.32073792500627    5.39136923559511   11.89706240242388
C        -1.37531327242491    4.43678388243637   12.34918119270400
C        -2.51314545272823    4.34651231420697   11.52880504021483
C        -2.64177624130399    3.34789950144822   10.58054829026995
C        -6.17900906609366    8.37927384742411   15.55439955020044
C        -2.71582552612459    6.05369164337581   12.89403246790438
C        -1.58135588481858    2.46062748181412   10.50355946727468
C        -0.32809445824424    3.54257796601723   12.25645194406477
C        -0.44937769153978    2.53910663562726   11.30842191967892
C        -7.32357724650615    7.65444629422756   15.17433449212748
C        -7.90671455261503    7.93418363448697   13.91134037277156
C        -6.26999562171474    9.72944383216466   13.48712763398404
C        -5.64205613573380    9.37571872942778   14.70423472993186
C        -7.39277399208078    8.96821693854102   13.09650133739129
C        -5.73264168636518   12.17507062772418   13.41134989773960
H        -6.71376311933944   12.39162635765445   13.82959570539478
H        -5.45218235129726   12.99113335402359   12.75036526799686
H        -5.01111342675724   12.13295659958974   14.22356051399026
C        -5.75641007259261   10.86012587580750   12.62849465293318
H        -6.43969812571034   10.97700872075137   11.77930825428046
C        -7.89921397681251    6.59645901691870   16.05816440266904
H        -7.63815091418142    6.77134504313497   17.09933817344841
H        -7.48815888099407    5.62702865819060   15.76380697382550
H        -8.98123139603848    6.54773533055226   15.95469719997693
C        -4.36911677048199   10.51793222781769   12.07816170571466
H        -4.40551930582146    9.57440080465896   11.53341130144651
H        -3.64433760842628   10.42002785856099   12.88364980331350
H        -4.03144019973310   11.29707105187302   11.39944274330825
H        -3.50639122229147    3.25804104224211    9.94600929924325
H         0.32928678875500    1.80468790560415   11.18251862701321
H         0.53716098930633    3.62146178506777   12.89203454690704
H        -4.24061692636689    5.69634569133054   11.50561520548222
H        -8.80676529337591    7.40798244273129   13.60975908121605
H        -7.90514721141102    9.21374463324812   12.17016271672878
H        -5.72796215090013    8.20269512069670   16.52389060902767
H        -4.78125424434261    9.94041786995850   15.04645946906246

