81
CSD_code = EHAJIH | q = 0 | S = 0 | Stoichiometry = C42H35ClNiP2 | MND = 4
Ni       -0.34145273730363    3.27695668511561    7.04962250420626
P        -1.63611565901994    3.00583112964013    8.74801970217777
P         0.98677218499638    3.60636546317582    5.38542375482333
Cl        1.34860163528157    3.20222661397523    8.37761383389539
C        -1.56598004865775    1.50508300882826    9.77373781591655
C        -2.59320877160749    1.20577066718563   10.66598678555230
H        -3.45084907062025    1.86087251075950   10.74044662178055
C        -2.52079688176215    0.06715127992911   11.44636050603936
H        -3.31738552866106   -0.15869612484798   12.14070119154418
C        -1.43182408615553   -0.78386513237294   11.33893791894235
H        -1.38081104445283   -1.67297143772755   11.95040681161156
C        -0.41362779084378   -0.49446876311373   10.44665051887143
H         0.43449611947790   -1.15770570835947   10.35930841958721
C        -0.47954019572165    0.64551121001988    9.66524435107840
H         0.31966347370565    0.88300864978492    8.97674855990502
C        -1.24824917883678    4.37187557046666    9.88750885932493
C        -1.35041218929212    4.29963892723885   11.26920286747690
H        -1.66485763510883    3.38131527181089   11.74369795627075
C        -1.02849406548713    5.40547648313940   12.03799998820122
H        -1.10057337591862    5.34774601795345   13.11438780007478
C        -0.60690107261786    6.57920275260372   11.43632836557577
H        -0.35293592869870    7.43546351045183   12.04388889208263
C        -0.49618385093987    6.65240880777995   10.05635841233166
H        -0.15459182520589    7.56355531632950    9.58640659671152
C        -0.81292495882466    5.55061921083645    9.28722614563993
H        -0.70725354802225    5.57833547135688    8.20308833129082
C        -3.43872706328165    3.18472107760516    8.52741035681623
C        -4.13165393203597    4.34316388287591    8.85232356176284
H        -3.61752390089733    5.16134451956352    9.33769485007948
C        -5.47993689655923    4.44983173550116    8.55755475372636
H        -6.01494067135360    5.35243401719298    8.81593120297438
C        -6.14083115286541    3.40916446247521    7.92887128618445
H        -7.19114420665572    3.49940034283193    7.69378025340062
C        -5.45275910794836    2.25220036945425    7.59743120618695
H        -5.96546605085214    1.44029873653069    7.10290591268336
C        -4.10920250602175    2.14238682601788    7.89218195316208
H        -3.56140690776996    1.24656294313364    7.63006397641314
C         2.18423961125503    2.23524255249425    5.38634887104211
C         3.48177779470571    2.32978248644435    4.90403483703261
H         3.84834021208107    3.26761391857913    4.51188598622904
C         4.30921860863551    1.22039087835147    4.94329240059481
H         5.32169812812425    1.29471981329029    4.57267163569041
C         3.84845662753719    0.02053859722026    5.45837070153947
H         4.50159547774961   -0.83927209708224    5.48948287571386
C         2.55474297826277   -0.07558127219554    5.94684519637594
H         2.19911051715523   -1.00832384036587    6.36054561980929
C         1.72827366862501    1.02987563913158    5.91262932735289
H         0.71752872269644    0.98352377677564    6.31606549741194
C         2.00940294547582    5.10869331005087    5.28725461318550
C         2.57953780178347    5.50979411692997    4.08127297746765
H         2.40112756718906    4.93542986710867    3.18221751535858
C         3.36390655296584    6.64708684600053    4.03205285983444
H         3.80639554762826    6.95288836339552    3.09479946496660
C         3.58198429248463    7.39472808400946    5.17876962068236
H         4.19421317582510    8.28365666346755    5.13397235545317
C         3.01269740120350    7.00214995320962    6.37806563610410
H         3.18014001897493    7.58318137963502    7.27314914769400
C         2.22803600846190    5.86398217123666    6.43346935927139
H         1.79280007186022    5.54660929793175    7.37099575700200
C         0.31083638319130    3.52702093591869    3.69280276787404
C        -0.45083680037375    4.60776329851177    3.25509616869342
H        -0.54104138464710    5.47991572926741    3.88942773588946
C        -1.08433024202762    4.56600389260219    2.02987089776779
H        -1.67428211300505    5.40771097141179    1.69798941801534
C        -0.97012180294847    3.43928688873802    1.23040089425111
H        -1.47050721373606    3.40222717921687    0.27396767097914
C        -0.21758423673553    2.36058409133036    1.66069240712347
H        -0.12802315944747    1.48144779170369    1.03878116412749
C         0.41759609793921    2.39920529108336    2.88988477757750
H         0.99905377499104    1.55144769023378    3.22523519850364
C        -1.82586914636902    3.31451904211810    5.89810823846526
C        -2.60803667305028    4.45749900919539    5.75211137775676
H        -2.37807279922128    5.35823116896319    6.31155745844845
C        -3.69737795816947    4.46549456719502    4.89733264731290
H        -4.29404488922124    5.36217762346418    4.80092461743609
C        -4.02421264584989    3.33369067790642    4.17322921432945
H        -4.87416599865721    3.34130445018963    3.50610501334119
C        -3.25593871044489    2.19178539368974    4.30870690609063
H        -3.50162902014093    1.30250817184710    3.74459566783299
C        -2.16681154876283    2.18106685046842    5.16339907730584
H        -1.57779521746435    1.27308247415359    5.24623560078207

