48
CSD_code = EHAKUU | q = 1 | S = 0 | Stoichiometry = C21H22N3RuS(1+) | MND = 9
Ru        5.60802246060208    7.58949156494961    3.74762202597533
N         7.19985236167931    7.02309812938853    4.85749263663202
N         5.02344138589300    8.46472356947081    5.43650920317137
N         6.56373916744139    9.33072486013771    3.62796138781610
S         8.88996175835623    8.11973813257064    6.74093443205939
C         7.90333547608815    7.53332499955239    5.66829923235539
C         5.91712796578595    5.71704613859624    2.34305628952567
C         5.70887476285717    6.84638507123177    1.53953592272568
H         6.38078881528707    7.04832880548535    0.71338057267640
C         4.57468053983867    7.67912200027010    1.72382787447164
H         4.40593597043145    8.50552935093219    1.03955021365854
C         3.58017071262655    7.35203122354411    2.66726171046544
C         3.77875898360454    6.18847146187390    3.45932311218721
H         2.98052481487820    5.86283096315052    4.11936249044177
C         4.92991833028351    5.40646202372702    3.32660957398417
H         5.03143787560838    4.49296164829639    3.90339944981401
C         7.08270521152633    4.78685849667286    2.11955637070854
H         7.16486536714045    4.13056639224027    2.99183484490292
C         8.40428112813941    5.54323709808717    1.97354466504383
H         8.44827577749258    6.09671183864132    1.03850010558335
H         9.22934204167487    4.83697796623963    1.98082917662076
H         8.53590922514323    6.23176899866959    2.80827776365102
C         6.79924804965644    3.92304515502574    0.88424951799293
H         5.87269564947989    3.36612850583286    1.00425859068858
H         7.60992065864065    3.21434760681897    0.74221978978630
H         6.72010089060995    4.53833022017491   -0.00921886458574
C         2.28961239662210    8.11079005581946    2.73483661222568
H         2.41111791406265    9.13189559332355    2.37992756866770
H         1.89261792248841    8.13388704652132    3.74797422522490
H         1.55120129525486    7.61933742478929    2.09896938944528
C         5.56889711549227    9.66891779539801    5.72926158315821
C         5.31852073808485   10.30350940557035    6.94432044034879
H         5.76994473305159   11.25752226745627    7.15865840486259
C         4.50663706539359    9.68758089728161    7.87776763626179
H         4.30822925373325   10.15685159778210    8.82776796205248
C         3.97095573270092    8.44180655216660    7.57488896086427
H         3.35009709828249    7.91578897524925    8.28136500627496
C         4.25924168598631    7.86903095051669    6.35123847317822
H         3.88346914743995    6.88459041250262    6.10365100104399
C         6.45507922850539   10.16950480236725    4.68528854865751
C         7.17641521351224   11.36043245535510    4.74410491686285
H         7.07920602812214   12.00910308125448    5.59828653692674
C         8.03032595753016   11.68912681141975    3.70855856890423
H         8.60447605831643   12.60101431338991    3.73899046467461
C         8.14699802637747   10.81134848707624    2.63758545726169
H         8.81383363168672   11.01965071528882    1.81714793239578
C         7.40193615180541    9.64819655787493    2.64164326622738
H         7.49207222478626    8.93387158001082    1.83348895612117

