46
CSD_code = EHAMIK | q = 0 | S = 0 | Stoichiometry = C17H26O2W | MND = 10
C         9.67339806277861    4.77750191236516    4.03684893251502
H        10.15646912664050    5.12751540371315    4.94314080855232
C         8.61065799577231    3.82892373712764    4.16258721268959
C         8.10426358688520    3.22990466378508    2.99863604252333
H         7.38863644636744    2.42001107118694    3.08195658489176
C         8.48568228810370    3.68766522591741    1.73298349588267
C         9.52508978805867    4.66668445535898    1.64226424235912
H         9.90441972262939    4.93077464451728    0.65881719034810
C        10.19095757375018    5.13604541068990    2.78632123924752
C         8.22460512819057    3.33215601134054    5.53606305753495
H         8.53473244297531    4.08711464954359    6.26856707279590
C         6.71736153847851    3.12591590690892    5.68784575724586
H         6.47747173907755    2.91798593937551    6.72799797848854
H         6.36754586112048    2.28681051412608    5.09055586108470
H         6.18010037697424    4.02189859872825    5.38048439383861
C         8.98436694923152    2.03301414469416    5.83163478288348
H         8.75033960158900    1.68146357995163    6.83358160890931
H        10.05978936968490    2.18961177035329    5.76375911908493
H         8.70546540374762    1.25636634962838    5.12151197396986
C         7.95940658711234    3.04705892979939    0.47045652591285
H         8.18796831592357    3.71459686624492   -0.36894435587032
C         6.44548241705782    2.83503131154168    0.50137268280883
H         6.09816830728049    2.52127223732208   -0.48024271405500
H         5.93877819528401    3.76101845163912    0.76883167826115
H         6.16537974306382    2.06485430492841    1.21659787241410
C         8.69007596293183    1.71805175024464    0.24234149164936
H         8.35318988396208    1.26000699483667   -0.68444644706255
H         8.49100654063442    1.02653777970546    1.05935383397483
H         9.76584751668889    1.87391669663778    0.17862342540960
C        11.43087838433046    5.99015842955504    2.65633353071394
H        11.53315548977442    6.28570267237173    1.60493448214710
C        12.65464380111548    5.15072805194364    3.04190115799616
H        12.71963739131054    4.25621426292081    2.42438970358447
H        12.59751320330404    4.84536439409455    4.08508080230328
H        13.56381576533994    5.73083806992046    2.90411479816593
C        11.35841427279038    7.26357155014693    3.49971518333537
H        10.44960771486653    7.81832636876032    3.27335286979553
H        12.21467268059160    7.89810931936965    3.28296538347866
H        11.36861422495334    7.03583687972720    4.56301117023161
C         5.85229557213698    5.64920096585626    3.05936783755040
C         7.85889609975210    7.58096051976342    2.71165594923939
O         4.70800214973563    5.59218620887419    3.15590844217573
O         7.91609272671963    8.72300689749587    2.59316044372238
W         7.80862585436806    5.62372997435585    2.89261896078539
H         7.21185278634398    6.01735888845731    1.43049976785128
H         7.47612541057205    6.26169723417507    4.35238816863452

