42
CSD_code = EHANEI | q = 0 | S = 0 | Stoichiometry = C17H18Cl2FNRuS2 | MND = 9
Ru        1.01255325635641    8.87321958322882    2.89346829370992
Cl        2.72109049438919    8.19820265818462    4.38126596348359
Cl        0.18141535119470    6.67616921865177    3.03087541384174
S        -1.86080140395737    7.93817660367557    6.95311997277766
S        -0.51431240584726    9.40687485568257    4.71355894340479
F        -1.00462633376487    3.86249705306615   10.01302519610592
N         0.42552476315466    7.27181228776140    6.02534064062808
C         0.59436402312917    4.45841644013407    8.39359023693657
C         3.91677202577738    8.52821787852166   -0.80780316769885
H         4.82703606176725    8.00489420002342   -1.08904304420202
H         4.05646189899938    9.59139688710226   -0.99588415906739
H         3.10500905294470    8.16976336200214   -1.43745795910317
C        -1.11400923732528   11.46936966986578    2.05370342859147
H        -1.06306848411736   11.85641175600862    3.07024954399979
H        -2.03871974992373   10.90773540051969    1.94257758677170
H        -1.13506877421635   12.31630838248396    1.36568415996363
C         1.00893562334317    5.29102630888277    7.37399905394864
C         3.43833782014771    6.77954404897709    0.95292182987904
H         4.38919417719732    6.26823611706429    0.82599574137169
H         2.71491715976945    6.32726207087170    0.27894327846022
H         3.09638111134517    6.62483879385418    1.97649733573547
C         1.09056230841700    8.67944993090159    0.63442910007558
C        -1.04553997548401    6.55320750763770    7.64483782738627
C        -0.62597183037388    4.68765894769102    9.02043875696015
C         0.18342323705265    6.34473754448952    6.99944939551362
C         2.49200523181050   10.23715243084774    1.85756060165961
C        -0.05068208192411    9.44543671629160    0.96998576102126
C         2.37622397941472    9.05456513120759    1.06977548863831
C        -1.46930526222057    5.72664262154944    8.66976215712072
C         3.60630181904879    8.27422325883914    0.67092011029851
H         4.44862075166392    8.63994817329365    1.27007835169530
C         1.37029977759199   11.00984548782021    2.18094936463287
C        -0.53604743138257    8.17238496816990    5.83850165057136
C         0.07459484936685   10.60936561987048    1.75245519969007
H         1.48741762852253   11.93752709004903    2.72931173196276
H         1.20091118163949    3.62745068479128    8.71519849978172
H        -2.40916717204349    5.87317312476532    9.17464962656160
H        -1.02159318157207    9.15789596352056    0.58375556733380
H         0.96842374015337    7.80729626736339    0.00235822370827
H         3.47858572209787   10.57021473223094    2.16565252405145
H         1.94655490817607    5.13959097003876    6.86551401797138
H         1.30049536970061    7.31685925206386    5.45328775382791

