123
CSD_code = EHANIL | q = 0 | S = 0 | Stoichiometry = C39H76BBr2NP2PtSi | MND = 4
Pt       -4.44188705265868    3.94293380599813    9.09847752606104
Br       -6.24955154947359    1.71628778542946   11.12561762118667
Br       -4.00360795185003    5.53312199101232    7.09197307883734
P        -5.18390696275689    5.78728478811752   10.29759612936958
P        -3.56458415053887    2.20624367641376    7.83209339576374
Si       -3.43058823279358    1.59609358584661   13.10013949087923
N        -3.61129403994391    2.55491472522848   11.62937135143830
H        -2.77145497517759    3.07641888609778   11.42666704244085
C        -1.65446501110465    1.99736738314852   13.65299953490545
H        -0.92248211613713    1.71074380137050   12.90382994630995
H        -1.41569198945651    1.45956901338897   14.56334813537248
H        -1.52184294286575    3.05587960376085   13.85585240820087
C        -3.59976875742850   -0.26316020800111   12.72104393729285
H        -4.60119384104829   -0.51843300271164   12.38891683631611
H        -3.39151882646250   -0.85220312895116   13.60881278607587
H        -2.89958634030899   -0.57757082821152   11.95102819455330
C        -4.68082547264582    2.15343764100100   14.42505115587410
H        -4.60274741958622    3.21972082796946   14.62241379999408
H        -4.49837711190300    1.63586245260647   15.36167686038502
H        -5.70353012839835    1.94075366653098   14.12968035466921
C        -6.24519712776833    6.91241624430722    9.27141605291565
H        -5.53318896822443    7.27694475697234    8.51926785532302
C        -7.31064463381419    6.13365648907228    8.49778961163779
H        -6.85980340463226    5.24122307174804    8.04819026587015
H        -8.11571857689620    5.80299913995560    9.15373595252603
C        -7.89059813728451    7.03320208168482    7.41135397101878
H        -7.09817162427122    7.31545064412115    6.71538911915454
H        -8.65558538650461    6.49371389790946    6.84924178629876
C        -8.49520497924056    8.28574188774580    8.04137777169519
H        -8.88938810859183    8.94068320434481    7.26191211923925
H        -9.32905115753770    7.99771895606412    8.68724657353987
C        -7.45448041802342    9.03926153661807    8.86683578644394
H        -7.91219176585349    9.91642288984443    9.33061607826620
H        -6.65611314699317    9.38729531896350    8.20733746530676
C        -6.85837695857690    8.13459678459990    9.94620282845925
H        -7.65174886401616    7.83927768562534   10.63525740648263
H        -6.10244031411315    8.68514324252762   10.51150470530763
C        -3.75976441974238    6.86962847065147   10.84047989140331
H        -4.12487162062084    7.54488325967918   11.62176618078190
C        -3.13598625206549    7.72877899012920    9.74168304155255
H        -2.79584322402322    7.10188637567315    8.91793180267044
H        -3.86746701636703    8.43471098170233    9.34622443312362
C        -1.94352436689930    8.50670557021493   10.29390787644699
H        -1.51365621471880    9.11868787442805    9.49898003728497
H        -2.27714070135960    9.17798597465608   11.09024582055191
C        -0.88789043551595    7.55414262768768   10.84467856987417
H        -0.03712052478213    8.11751085745461   11.23314210853688
H        -0.52529668297597    6.91409143764961   10.03718147052601
C        -1.49018142967806    6.68995606165350   11.94727972855451
H        -1.79688087459384    7.32738077394684   12.78084727700987
H        -0.74487921204610    5.98509752323625   12.32420110632197
C        -2.70169134518984    5.92877139461073   11.42073971438868
H        -3.13589631306399    5.32240571114779   12.22097489725660
H        -2.38223978024276    5.25362353615828   10.61571052354270
C        -6.05700479874293    5.43098587196361   11.92743541967469
H        -5.51676735684586    4.55880444131027   12.32350374300987
C        -7.49975420981465    4.99859030141934   11.66073457001650
H        -7.52821711945968    4.24920899011834   10.86673739301235
H        -8.08494407520357    5.86032226921046   11.33728605403011
C        -8.13828017113373    4.43658645642030   12.92636486472325
H        -9.16220048561950    4.12586957022145   12.71264414760707
H        -7.58867102287815    3.55293914734727   13.25394658902520
C        -8.12582522459390    5.49329254613761   14.02511568506577
H        -8.73537952597151    6.34688623764053   13.71775657088497
H        -8.55811714343701    5.08804726799734   14.94188087249272
C        -6.69832097975721    5.95867818888998   14.28913973022309
H        -6.11310400809565    5.11539638515082   14.66391619451113
H        -6.69358599793003    6.73485817390176   15.05814913932435
C        -6.04007547351057    6.50110654983055   13.01872506282517
H        -5.01728378147586    6.78845212752364   13.26887596957841
H        -6.57521044211205    7.39214418204442   12.68700465268664
C        -4.11226212479958    2.29227414640839    6.05936530938976
H        -3.64497286440202    3.22515564708224    5.71798362852417
C        -3.66001709529296    1.18739965914372    5.11091775836720
H        -4.17454771769687    0.25090032830498    5.33413451825231
H        -2.58424483430980    1.01727643631234    5.19866573814593
C        -3.99691619205971    1.60573500605905    3.67899313983432
H        -3.43857278240189    2.51040493243989    3.42747204345311
H        -3.69249884131483    0.82003545475711    2.98330326267618
C        -5.49175043166977    1.88034271491051    3.53058635166462
H        -6.04844301260463    0.95702209255990    3.71224768350457
H        -5.70598248526415    2.20221765688598    2.50959794442490
C        -5.95152553964007    2.94841389308031    4.51998006510521
H        -5.44746299589464    3.89275825564558    4.30524006284002
H        -7.02654837890022    3.11055673179614    4.41892606420347
C        -5.62174049203925    2.51369997629616    5.94413687859082
H        -6.17573113998985    1.60437932242692    6.17623811955625
H        -5.93626623662881    3.28540267550478    6.65610848312233
C        -3.84448090815283    0.45930771157981    8.47380798498535
H        -3.76141279817244    0.56803111158399    9.56494010080111
C        -5.27274653128117    0.00928965121991    8.16272260006843
H        -5.36950883848786   -0.18341938779632    7.09349642053018
H        -5.98311440812228    0.79334806511177    8.43417380904030
C        -5.60901780527340   -1.27582449663910    8.91180167858577
H        -5.55368974306814   -1.09938594173457    9.98701839502112
H        -6.63223043918034   -1.57628774794524    8.68068918046081
C        -4.63427193482263   -2.37884905493138    8.51456635715379
H        -4.74965790113919   -2.60211108874525    7.45082657740610
H        -4.85263808912405   -3.29166615784203    9.07199261641597
C        -3.20024570459505   -1.93841959901125    8.78690318107053
H        -2.50333691678034   -2.71935913560647    8.47334845580901
H        -3.07162989926656   -1.78971446585810    9.86176034054525
C        -2.86489932580468   -0.63713052813681    8.05520284148723
H        -2.91965973965939   -0.80585295165957    6.97885305932331
H        -1.83871113743221   -0.36400802276298    8.30644007622119
C        -1.70130174087483    2.28695899517928    7.72998763068560
H        -1.35050519055544    1.35737393391881    7.26773494581708
C        -1.15695042335131    3.45408529387107    6.90810973962061
H        -1.50551923602419    4.39920468674905    7.32508825060551
H        -1.50544009579897    3.39587400892270    5.87630860298033
C         0.36964721654377    3.44090043184457    6.92007564424713
H         0.73296228083504    2.51560582143827    6.46446165475815
H         0.74261613505917    4.27560854060189    6.32381697983255
C         0.89871239351205    3.54413477640687    8.34666979304352
H         1.99033548955225    3.52449520018559    8.34562286225255
H         0.58200308171751    4.49526867599541    8.78087437979791
C         0.35620036679088    2.39621969811694    9.19158989623065
H         0.70491618229680    2.49085851815093   10.22293151314507
H         0.73116851950283    1.44728939921135    8.79921482551817
C        -1.16851591617224    2.39012914772356    9.16036992228911
H        -1.53911248157285    3.32981765610152    9.58638147467207
H        -1.54971848410631    1.56906877736826    9.77316156702836
B        -4.65848213661544    2.72385312172405   10.71260351692570

