79
CSD_code = EHAPOT | q = 0 | S = 0 | Stoichiometry = C35H38BNO3Pt | MND = 4
Pt        6.47211253385474    4.34276319526151    2.39332071026363
B         2.19632583177842    7.30537030642687    3.92736122860645
N         5.65722654357824    6.01166587804965    2.97350854920622
O         7.38790019966113    2.65579175098798    1.76562197031498
O         4.63841852181466    3.23411599174043    2.48333212970435
O        11.03107521914799    8.47971832505351    2.21259799268091
C         8.07823313036719    5.51416665715417    2.29870247193163
C         9.37915102641697    5.18474685880395    1.94917034313631
H         9.61825398837857    4.16077928843391    1.70123467321565
C        10.38821463786853    6.13654509142378    1.90919091184377
H        11.38596028035540    5.83166477936921    1.63258145828691
C        10.11229049128599    7.46495897173336    2.22156114460058
C         8.81801281070138    7.82885694507045    2.57444867640775
H         8.62925569100680    8.86378485731339    2.81287436962423
C         7.81368817359242    6.86871154785091    2.61364376843838
C         6.43185342413369    7.12822511722289    2.97621706901537
C         5.87111733839835    8.36206371710382    3.30276793225566
H         6.49219695170547    9.24348547225072    3.29975833770700
C         4.52987527991059    8.44964253552279    3.61297776492720
H         4.08524899257760    9.40613561984819    3.84695682762685
C         3.72949818513260    7.29764973427938    3.61798632839955
C         4.37397911169324    6.10335891328438    3.29651436621388
H         3.81609447622785    5.17586063777785    3.29325705244345
C        12.35868304913270    8.17606022448032    1.86590999727251
H        12.90226331126112    9.11786506584492    1.92756889445907
H        12.43015156078631    7.78500935179440    0.84543725451495
H        12.80345232376299    7.45713977390673    2.56210015086777
C         1.60106800584934    8.51857527852969    4.71924826151815
C         0.55489255910775    9.28733779661112    4.17607351416079
C         0.07983739097331   10.39898903627187    4.84928763318335
H        -0.71942679042574   10.98224570426971    4.41254011527881
C         0.60135673638268   10.78427588508109    6.07805072505880
C         1.61773532013123   10.01882504637631    6.62220491602363
H         2.03261071506991   10.28847328665148    7.58405487235841
C         2.12013814731706    8.90480308209598    5.96272012399995
C        -0.03751656553325    8.93260570852833    2.84358580757177
H        -0.34295543032523    7.88894159047096    2.82523184391740
H         0.69416310352230    9.07750521587486    2.04970168988688
H        -0.90209891042537    9.55642457703217    2.62909813509720
C         0.06606339333367   11.99326209645384    6.78266765439622
H        -1.01169678002699   11.90984583115485    6.91668718680526
H         0.25838024137194   12.88963290232921    6.19335432560428
H         0.53082570232056   12.11426551103350    7.75799120302042
C         3.20025728980516    8.11755662999185    6.65153198001855
H         3.39929693524752    7.17742844190011    6.14648187035582
H         2.90915873788994    7.90719110356384    7.68003402631044
H         4.12497949471897    8.69412329902751    6.68214142292763
C         1.35844304857248    6.08288516991715    3.41614864599332
C         1.42226867285886    5.65836317815165    2.07970808025946
C         0.75050629984612    4.51549285616806    1.66965704365885
H         0.81740633926036    4.21213201951806    0.63366520989239
C         0.00594823542590    3.75493073782864    2.55570765938596
C        -0.07212318143121    4.18122168275583    3.87478254736199
H        -0.65539127222089    3.60418720120686    4.57952018752799
C         0.57810679958217    5.32426813077992    4.30823868657020
C        -0.71801794224738    2.52176254357744    2.10727014673337
H        -0.61806445294599    1.72616166704838    2.84340811027100
H        -0.33362187403837    2.16990128962099    1.15283168244214
H        -1.78097585394460    2.73514994860926    1.98930938406295
C         0.46815069812538    5.71531499215285    5.75304781093687
H        -0.25468227894287    5.08545149230853    6.26651087909967
H         0.15875685628624    6.75351182865742    5.84791597637284
H         1.43022342901158    5.60869612666384    6.25197638170559
C         2.18634000888716    6.42251758682423    1.03462464354482
H         2.44733365679283    7.42093162420297    1.37238226185274
H         1.59372172242392    6.50446075569179    0.12434459388382
H         3.10603487399514    5.89279069084775    0.78410210780213
C         7.79814741930229    0.42622674932970    1.12123892746979
H         8.80171839658460    0.82984237553841    1.01683232298299
H         7.46777462638622    0.02776776816654    0.16454012635195
H         7.80972823865844   -0.38646665209287    1.84431214307740
C         6.85618735338641    1.52029767282006    1.58439321005011
C         5.51961398292082    1.16364491101576    1.75466263115280
H         5.24898903477908    0.14113744622438    1.53903776691518
C         4.50086606904953    2.02330628552055    2.17938280742164
C         3.10621258134448    1.44187116440112    2.29025952972608
H         2.39760556129585    2.22939800697001    2.53619980061780
H         3.08537775730933    0.68397158828792    3.07116251708513
H         2.81861281284823    0.97202653002755    1.35253649633104

