75
CSD_code = EHAQIO | q = 0 | S = 0 | Stoichiometry = C34H36BNO2Pt | MND = 4
Pt        7.10987257389521    3.18364694614476    7.38409651557267
B         1.54968709373457    2.75718746978774    7.23056325771350
N         7.64959642488636    2.30269220253673    9.04004978765496
O         6.41339934453041    4.00695978817391    5.68686813152871
O         9.10498555713242    3.66282120243052    6.71350012703257
C         5.31629383166547    2.69036369052300    8.05983578886695
C         4.09633022352781    2.95901967813978    7.46723564470695
H         4.07160602570223    3.56074291664557    6.56989202910317
C         2.88982280961325    2.46749186756990    7.98171691068766
C         2.94781915630869    1.70493429813477    9.15808352821031
H         2.02880418322520    1.31203393999280    9.57055051142691
C         4.14388066293756    1.44309184805433    9.79118594760153
H         4.15252431074683    0.85718062551215   10.69967086753362
C         5.33523995510516    1.92761768112689    9.24778852068231
C         6.66749018781195    1.73461988850997    9.79285759467832
C         6.98355438673600    1.05968029886123   10.97001218414695
H         6.19496866837821    0.61426817258646   11.55474575700613
C         8.29946675705962    0.96642277860097   11.38044695965374
H         8.55531516449857    0.44664203233287   12.29116955176534
C         9.28698295679062    1.55441376440814   10.59964580692554
H        10.32538887598748    1.50519293835285   10.88497271496416
C         8.91653334516993    2.20910847223182    9.44060026449825
H         9.65315945981549    2.67781707560949    8.80144991197556
C         0.19527926576439    2.64958758457979    8.01322220936012
C        -0.81808822018303    1.77856412515825    7.57851255165192
C        -1.98739476027982    1.63790150468222    8.30924038312722
H        -2.74986595532719    0.95518918320427    7.95865151504252
C        -2.20400814476530    2.35440152993249    9.47631370916218
C        -1.21231988260449    3.22592303119584    9.89864757905135
H        -1.36382841508069    3.80406227156150   10.80054444084953
C        -0.02863487800574    3.37712799592520    9.19171333212038
C        -0.63573821461164    0.95931523814713    6.33423487113905
H        -1.56375324536333    0.46207965470358    6.06085871369520
H         0.12707477110176    0.19697239338002    6.48973772615971
H        -0.31314619194274    1.58586352978466    5.50598902306610
C        -3.46964667498534    2.20214661088712   10.26503306782862
H        -4.16034422084997    1.52582121503328    9.76733542743975
H        -3.95780206920108    3.16771763687331   10.39230206690670
H        -3.25210079886794    1.80713888579570   11.25726667039402
C         0.96798450484766    4.37608368936256    9.71023099114506
H         1.29994358374537    4.09168753932219   10.70846632750945
H         0.50369043668396    5.35953722628711    9.78439254083058
H         1.83831072573263    4.44817792560749    9.06592521527287
C         1.65987547477863    3.15968248767700    5.71664811541998
C         1.12312278199106    4.37480884592686    5.25513896854605
C         1.33704753171934    4.78629423329727    3.95047576090817
H         0.92627207243108    5.73016773372032    3.61763780896396
C         2.06975595654599    4.01766562929259    3.05581711865783
C         2.57481335244947    2.80783146514873    3.49985237773513
H         3.13815318555807    2.18324123946468    2.81945558204333
C         2.38265128581124    2.37614931363596    4.80509512258599
C         2.96144564598778    1.04353762207830    5.18906697724063
H         4.03932256853886    1.13470792434868    5.32421826403061
H         2.78162575680689    0.31400794114612    4.40031021397977
H         2.53549191233312    0.67300965562512    6.11618366096747
C         2.30261774656701    4.49802181225769    1.65480061769668
H         1.35889402743409    4.76178966326234    1.17913528321107
H         2.79359477517141    3.73356048199873    1.05725376334456
H         2.93162602284662    5.38861434812746    1.66068229186154
C         0.34402463566955    5.26561546641319    6.17833261593552
H        -0.08004248989274    6.10640970871489    5.63371969224907
H         0.98958544281616    5.65523271234969    6.96383660226130
H        -0.46234741807839    4.71324880039833    6.65528808483159
C         6.26186425264557    5.01154235977752    3.56420900506544
H         6.64898616124056    4.61142000300572    2.63027594767093
H         6.31265894930049    6.09794750542467    3.51820768108584
H         5.22526702136714    4.70865984699371    3.69127486894363
C         7.08182572714153    4.51040778978982    4.73570588416327
C         8.46485937884797    4.65735872529556    4.65830310235533
H         8.86529114836398    5.12782700221771    3.77317630073311
C         9.37972596240444    4.24147661986604    5.63294647360258
C        10.84370328244885    4.51287779941898    5.34703399581421
H        11.45739400964271    4.13947824859058    6.16309468380493
H        11.00745281714590    5.58257807011819    5.23425867666147
H        11.13910744262412    4.02348058465781    4.42140778260636

