75
CSD_code = EHAQEK | q = 0 | S = 0 | Stoichiometry = C34H36BNO2Pt | MND = 4
Pt       -4.21665990157411    5.12165118443448    2.82876293748404
N        -5.93446202001880    4.77404589632660    1.98494609959206
B        -7.39782876700598    4.67057430358535   -1.53513006212480
C        -5.31172890981903    4.86255247553607    4.46750949380362
C        -4.90293459922093    4.90655393396360    5.79489529272564
H        -3.86193735770228    5.08638927034751    6.02217736554721
C        -5.80980755288539    4.72308159034360    6.82649663578645
H        -5.47383674565328    4.75959851057247    7.85341267409870
C        -7.15135061479187    4.49254960410333    6.55376754631975
H        -7.85097985018671    4.35129925706221    7.36496388191511
C        -7.59193323051180    4.44394277224983    5.24672272110203
H        -8.63696157214974    4.26410835032473    5.03891496836069
C        -6.68265553289840    4.62654445123116    4.20543174775926
C        -7.01306837061107    4.59352916679048    2.79227575172756
C        -8.27590232887035    4.40837618749557    2.23071953721464
H        -9.12843682209499    4.26639119521425    2.87595320259164
C        -8.43058461482018    4.41928874046468    0.85992605988059
H        -9.40980712678341    4.29444168938209    0.42049403770124
C        -7.31898349923195    4.60596238470579    0.02546001408540
C        -6.09195850495728    4.76685555891814    0.66797658503015
H        -5.19248508440589    4.90361182412423    0.08167984003463
C        -0.22135053725142    5.95254140951485    4.24425650907332
H        -0.48270239075694    6.76377290997207    4.92131578268500
H         0.71691132863278    6.18082123295258    3.74965075750704
H        -0.10721405150864    5.04982449539231    4.84167113975567
C        -1.34866688306019    5.75083054358545    3.25252689096050
C        -1.05411624854957    5.88135608416356    1.89764464045240
H        -0.03907111072985    6.12625139857892    1.62559603107439
C        -1.97214258223367    5.72431460155444    0.85144547409202
C        -1.45246080190065    5.92533338058002   -0.55742628222849
H        -2.27202030703109    5.84347330395079   -1.26776632062321
H        -0.70207815828402    5.17056062248123   -0.78480397894489
H        -0.98836023304942    6.90476983461007   -0.64923014066221
C        -8.61608175004780    3.99975451523650   -2.25437267955677
C        -9.43721820064895    4.74023174427446   -3.12278283863101
C       -10.54686859531591    4.15424479085956   -3.70961119288188
H       -11.16867299426683    4.74381624321821   -4.36953376845420
C       -10.87589328294517    2.82669671174847   -3.47682300157645
C       -10.05863161776865    2.09110201154012   -2.63304908043959
H       -10.28788894753429    1.05061630946974   -2.44655762285600
C        -8.94851157564855    2.65630906099850   -2.02340103784214
C        -9.14251944296165    6.18509962820735   -3.40177783195653
H        -9.80331296672907    6.57001825674644   -4.17497947876000
H        -8.11157331961228    6.31081572101310   -3.72473197687104
H        -9.28302385960669    6.78404290147031   -2.50275641573606
C       -12.08566142238632    2.20680378815511   -4.10667833798549
H       -12.37820732302276    2.74812879570490   -5.00332718871635
H       -12.92300850670800    2.23040071342163   -3.40809585059001
H       -11.89697086796799    1.16728436821552   -4.36659049558923
C        -8.10609804845194    1.77208334212095   -1.14601456109879
H        -7.95586233539984    0.80496852842650   -1.62361829993998
H        -8.61021816496171    1.59612185757087   -0.19533503536790
H        -7.13643170696186    2.21466459175359   -0.93958717873177
C        -6.22405422531644    5.40750415931244   -2.26788534216356
C        -5.82527441181502    6.69955047144240   -1.88998511838505
C        -4.71345262349839    7.29250775673796   -2.46968581254332
H        -4.42802012631802    8.28820867068186   -2.15866922799389
C        -3.95899192912569    6.63610594642215   -3.42841711339381
C        -4.36216020566179    5.36643001731117   -3.81827347571493
H        -3.79094112455865    4.84158032292188   -4.57202173677096
C        -5.47509935249760    4.75551179522075   -3.26435469840842
C        -6.58735380115579    7.50295452136916   -0.87318881022248
H        -6.03749899774712    7.53089345735937    0.06814056397753
H        -7.57166823240389    7.08573660551111   -0.68274446202775
H        -6.70313067607926    8.52936093497794   -1.21892068297676
C        -2.76090590374130    7.28701974751213   -4.05018871465107
H        -2.33878091725322    8.03819747890656   -3.38662967509492
H        -3.04599996541137    7.77978658565871   -4.98053085826475
H        -1.99543394483979    6.54981485074709   -4.28332609171386
C        -5.84096892814162    3.37188990222838   -3.71637674120921
H        -6.88955368080622    3.32452284111892   -4.00060107891758
H        -5.68180574061048    2.65286050250088   -2.91398966526243
H        -5.23282246873301    3.07349398522506   -4.56725371236215
O        -2.47176979880681    5.48217239983300    3.77838031932649
O        -3.18538303463057    5.42759500234624    0.97360917457021

