44
CSD_code = EHAZAP | q = 0 | S = 0 | Stoichiometry = C21H15CdCl2N5 | MND = 5
C        -5.11576811873018    8.17637454824607   22.89900064052486
H        -4.91303410378565    9.15194145968943   23.32408062010596
C        -5.00628199978599    6.99889293696875   23.63446318627926
H        -4.74191695183119    6.99845602195111   24.68194321173011
C        -5.56129988592940    5.79178729962300   21.80410049995335
H        -5.69041438501251    4.81005396646286   21.36973001760499
C        -5.73042167641744    6.96344843654312   21.05918006058638
C        -6.19001970088455    6.98862916821083   19.65959930269447
C        -6.97116833070851    5.97603994344688   19.11897655006937
H        -7.24853030145815    5.12972393078951   19.72455533581313
C        -7.44772580748725    6.10012561597013   17.80912715909186
C        -7.11063918712348    7.26935258416273   17.11670656948143
H        -7.50079513396189    7.43366429272270   16.12456248065362
C        -6.32365111368477    8.23299963027972   17.73342332547409
C        -6.00848551668461    9.52097280335795   17.09256202826508
C        -6.01195642398326    9.72222651501141   15.70825599955056
H        -6.17220121771342    8.91283574250198   15.00974799263779
C        -5.55864240913015   11.91903560031569   15.99528795454597
H        -5.41088352745731   12.88677862597378   15.53827552343092
C        -5.49060371613424   11.73121107078061   17.37332456000225
H        -5.25405195147212   12.53452217047000   18.06088308772983
C        -8.28000578011291    5.11211576046660   17.15768068419796
H        -8.63731026492465    5.40312597449433   16.17995203755654
C        -8.61231979172382    3.91141956729654   17.65877281496538
H        -8.23510491559956    3.62059919286091   18.63062395246503
C        -9.44014069642042    2.90759504892601   17.02194070932595
C        -9.61123847458183    1.67802301822234   17.66737734902729
H        -9.12693438145508    1.50849739435674   18.61874186329984
C       -10.38566300090910    0.68150648564500   17.10805059594598
H       -10.50415822683117   -0.26073358306721   17.62215450885027
C       -11.01159321662309    0.89105062215441   15.88987608091735
H       -11.61833819168055    0.11365535221536   15.45059940160307
C       -10.85704826677801    2.10523298045499   15.23894291252800
H       -11.34688110378066    2.27334434548538   14.29118661613925
C       -10.08165434561557    3.10287175122357   15.79492435400324
H        -9.98041322047643    4.04239103682383   15.27461756518565
Cd       -6.11048117662510   10.05778156739435   20.25973524174365
Cl       -8.42677512420767    9.64463274542367   20.10538782793660
Cl       -5.15208014354607   11.85054155453446   21.40193248818821
N        -5.47918142872462    8.14737919249959   21.62746118869279
N        -5.85884596928744    8.07731385499822   18.96993726366171
N        -5.71978120383114   10.54209937053339   17.90608309670456
N        -5.21271703460928    5.81734332579466   23.07652852357850
N        -5.79894258231040   10.90984107779296   15.17450681728517

