37
CSD_code = EHAZUI | q = 0 | S = 0 | Stoichiometry = C14H12N6NiO2S2 | MND = 4
Ni        7.30143101865654    0.00035240214449   21.90064226283375
S         5.69084644738952   -1.77682996356934   21.64479412114303
O         9.09718058332082   -3.10015160733611   17.92412759513799
N         5.92502999529856   -2.81414127895866   23.06062900637558
N         8.43416786002571    0.65816091429051   19.53853617821965
N         8.09808274495441   -0.48798112783170   20.19618561968297
C         5.97184065040337   -1.66514196347156   23.54846948443969
C         8.30670955287659   -1.62693418947823   19.61285599362620
C         8.94865961686754   -1.81788547767742   18.35901266235218
C         9.48809227004736   -0.95525073309357   17.42072379939291
C         9.97623526900001   -1.76089180143659   16.38119168729839
C         9.71255169869850   -3.06198863685051   16.73659787166705
C         9.99106725130505   -4.34256800924578   16.03892969476103
H         9.63940756339870   -5.17118366725322   16.64731767929428
H         9.48571983938051   -4.36767506198289   15.07471137934320
H        11.05943067043463   -4.45565975209130   15.86210664335707
H        10.45975001684480   -1.43227719111262   15.48420000099493
H         9.51418004873016    0.11260863766124   17.48563527233479
H         7.97313785713982   -2.51946471237692   20.12776842865541
N         6.17029943251728   -0.65794013091498   24.26288536340356
N         6.50501842162408    0.48843386611050   23.60502197452589
S         8.91143638188704    1.77754818295806   22.15706092752032
C         8.63236187912233    1.66535552592172   20.25300712657556
N         8.67915753058262    2.81447147481451   20.74061982934290
C         6.29480659181186    1.62732512683219   24.18786081295337
C         5.65214179733857    1.81788136108891   25.44140830990396
O         5.50041578680127    3.10019659427648   25.87501960088983
C         4.88482662818712    3.06169880498971   27.06243894532651
C         4.62437795564667    1.76030187764961   27.41911180245592
C         5.11462014107577    0.95485468055720   26.38040952052965
H         5.09121694467760   -0.11313200037815   26.31659485673910
H         4.14154800020045    1.43132753357818   28.31634226505782
C         4.60280145402266    4.34237664505615   27.75851419955640
H         4.95345110915921    5.17108660122776   27.14966874173874
H         5.10690746394241    4.36953347906049   28.72331484890623
H         3.53398160889257    4.45344196712642   27.93391035342314
H         6.62720991773809    2.52014162971515   23.67267514024124

