36
CSD_code = EHEJIL | q = 0 | S = 0 | Stoichiometry = C14H14FeO7 | MND = 7
Fe        1.57277314431843    0.98175057567472   -8.14414874979471
O         3.33679393726463   -0.62904519136313   -6.45325906980648
O         2.52355343652524    3.63244534078338   -7.43135890601599
O         3.25997056942070    1.13175439612276  -10.50935175300659
O         1.21586176680266   -2.80117301563400   -9.66727228430376
O         1.07959644011115   -0.96383048533822  -10.95327499757201
O        -1.61859701000151   -0.69408422658783   -5.89464602121654
O        -1.44543196904955   -1.91477176173126   -7.79381668548264
C         2.64255289155649    0.00251517837753   -7.09994402509633
C         2.12330524698742    2.60215953622674   -7.72355993574336
C         2.56028402196249    1.07628875931308   -9.60929441786679
C         0.43073121327858   -0.75201453702215   -8.71302177007505
C        -0.29429431625710    0.44468073426251   -9.06553241044496
H        -0.61744056824350    0.65109709882928  -10.07765171942130
C        -0.56716563425698    1.29298665884534   -7.98791243571978
H        -1.10123242342728    2.22797029975254   -8.11419102190477
C        -0.01732009577190    0.88143942199041   -6.73205740795992
H        -0.15279568340720    1.57013523171145   -5.90116260027496
C        -0.27138939421254   -0.55809571415380   -6.30414746717689
H         0.38926895348438   -0.83438264322023   -5.47183554210337
C        -0.12060527269656   -1.50415084080141   -7.50982150933628
H         0.50885187706342   -2.37673112448518   -7.29097227929132
C         0.92804742460311   -1.63758564086288   -9.79311116091883
C         1.61334509390452   -1.71094147983466  -12.03658076506667
H         2.53303042527508   -2.21383399771511  -11.73140871072798
H         1.81251243794036   -0.99494087970491  -12.82994813942614
H         0.89508992650080   -2.46291212658192  -12.36962948541771
C        -2.21730811948264   -1.75705532502269   -6.62300987519445
C        -3.63781123528226   -1.36172864679843   -7.01585105504753
H        -3.60759293258786   -0.44643012316413   -7.60064596006991
H        -4.22793231686773   -1.19660394388173   -6.12020593272054
H        -4.07974376899568   -2.15359418403105   -7.61198479518117
C        -2.20603510231998   -3.04021057860047   -5.78128803199116
H        -2.64041707340420   -3.85322706752985   -6.35528925077998
H        -2.77930667917524   -2.88226008514684   -4.87265277388617
H        -1.18464921155954   -3.30131961267794   -5.51496105395811

