67
CSD_code = EHEPAI | q = 0 | S = 0 | Stoichiometry = C26H30N4O5PRh | MND = 6
C         9.73385111264915    0.61916908552946    8.90116592324287
C         9.70702999510409    1.99137374083589    8.48015755958707
C        11.00535714044203   -0.11579668072088    9.19112602809341
H        11.56056726640399    0.36267916645613    9.99730612153312
H        11.63943482425724   -0.13818338504390    8.30615404183605
H        10.75704138312321   -1.13345335689979    9.48560831529409
C        10.94434257098997    2.78759380248804    8.21332297481239
H        11.56358053319396    2.85739892358022    9.10657352809760
H        10.64943945819533    3.78795667386287    7.90423808865765
H        11.52998969663848    2.32296452521919    7.42162032099286
C         4.27289707620357    2.12203521961823    8.34472480215771
C         4.17065281138746    0.79916046428028    8.89679622690204
C         3.06945621439956    2.90489060338842    7.93375933778581
H         3.37982188396680    3.88429668428008    7.57930663442691
H         2.54260249618195    2.38437272852685    7.13540234870756
H         2.38956124673492    3.02337385669896    8.77519512807196
C         2.85710418647313    0.19059118159036    9.28071168435058
H         2.17646669904280    0.17385157009802    8.43106472925301
H         3.03827671451802   -0.82692058140753    9.62201601183251
H         2.38787711470755    0.75230204860604   10.08776320567198
C         7.08962272248974   -1.32604285457267    6.22887378318706
C         7.12867023875365   -1.72519496526318    4.89199999803993
H         7.16793141346322   -0.97589062023834    4.11149724526865
C         7.11847787724243   -3.06747297526616    4.57100348045668
H         7.15346244232532   -3.37388246630615    3.53556253547719
C         7.05820226667037   -4.01970640264747    5.57879706043152
H         7.04885356695348   -5.06966543350215    5.32488181500381
C         7.00437147758716   -3.62379967664522    6.90310012474236
H         6.95001083504694   -4.36227793739873    7.68840898603497
C         7.01584016487133   -2.27774707456857    7.23698624748855
H         6.97317636786452   -1.98407868962465    8.27586673134503
C         5.51835804658526    0.84800030608230    5.60765924527955
C         5.39574768892803    1.86171840218768    4.66683623115478
H         6.24407933573513    2.47317900392713    4.40512566993726
C         4.18070921849518    2.08301616867719    4.03963617863378
H         4.09511031670258    2.87488117184788    3.31037625631450
C         3.08187819517257    1.29837246444731    4.34143573424191
H         2.13592631771847    1.47915275939637    3.85270691225289
C         3.20245234811421    0.27306216413033    5.26702913553316
H         2.35296724666590   -0.35428854630158    5.49510399634325
C         4.41081302848736    0.04943049868885    5.89698641977077
H         4.50932564308928   -0.75780405288608    6.60931757655275
C         8.45033661783788    1.13280699040052    5.64084915439391
C         8.52915434696139    2.50143359337988    5.38716334708231
H         7.73929547923459    3.16156071423499    5.71370438147418
C         9.64712546386331    3.02991542115767    4.76916374837101
H         9.69965595532646    4.09106181230750    4.57738149212904
C        10.70454226088828    2.20636903340509    4.41846543827282
H        11.57924770356857    2.62231598289736    3.94057273700312
C        10.64816854292653    0.85218611952436    4.70409886180541
H        11.48112108735446    0.21078684092952    4.45502652366854
C         9.53073131562760    0.31606022490617    5.31850001048320
H         9.49816768806849   -0.73779856094036    5.55524228582639
N         8.51092646625995    2.49398345040486    8.40670908676075
N         8.56748414975665    0.06253125756656    9.10089578784165
N         5.48032669338903    2.57283875549495    8.27323797277167
N         5.30257923559345    0.16858897027177    9.09657689376726
O         8.26743175813650    3.73017239397115    8.09903358601239
H         6.75934847756695    3.92456747777622    7.88675721032708
O         8.39716579818486   -1.05978438033931    9.65130562685088
O         5.73243231941741    3.80505497307517    7.74930233271209
O         5.38587337584218   -0.92334073728043    9.72381358528728
O         6.92098227282916    1.26551127646797   11.07998724328613
H         6.59952302351532    0.34936679131263   11.16041573435297
H         7.80656877730871    1.27054342964268   11.45875568314433
P         7.02963463229254    0.46361429462023    6.56110234651953
Rh        6.98803937474640    1.20983635974602    8.70193455506915

