45
CSD_code = EHEPOY | q = 0 | S = 0 | Stoichiometry = C16H25Cl2NTi | MND = 8
Ti        9.58333444193331    5.26211992819183   13.64704521327771
Cl       11.23907145723634    3.89594823839776   13.22631122431347
Cl       10.74028755285591    7.00930038431181   14.20108993719488
C         7.34120069448706    5.07026510643748   13.90730295090653
C         7.90493887120276    3.76129064074678   13.95053007497874
H         7.67978031112221    2.93299457299268   13.29050137644818
C         8.71859902893915    3.65865652123857   15.10153231276588
H         9.20846245513203    2.75558043828679   15.44483852317792
C         8.67918059878429    4.89203741370989   15.77595125262670
H         9.12222414432122    5.10817027328009   16.74076410899212
C         7.82800281285313    5.75772916655461   15.05278803987568
H         7.51737503456743    6.73585351515727   15.39533622086630
C         6.33183516958136    5.59094684746918   12.89733551337254
C         5.11430723338502    6.09540137121342   13.69115442156447
H         4.81184661358450    5.32363412188458   14.39587352844077
H         4.27314418612344    6.29798987590947   13.03445330977435
H         5.34075911852658    6.99238142528531   14.25839010066622
C         5.86240493282828    4.40853588509209   12.03360357658682
H         6.68389909394769    4.02016742084093   11.43419304858985
H         5.05210061795939    4.70128409381962   11.37247112786640
H         5.48736834249226    3.61431833598195   12.67531990657844
C         6.93157586708035    6.71822115975109   11.95435559176611
C         7.48544752096242    7.92237330678681   12.74291207781386
H         7.79015207815725    8.69452960798959   12.03831723454493
H         8.36122848901725    7.65153477391474   13.33611599755748
H         6.72222448752790    8.34843203766019   13.38935330908688
C         5.83648932610590    7.28856057145142   11.04826818205539
H         5.11673010080027    7.82979246089815   11.65806459573725
H         5.30450992198958    6.52801746143977   10.49040989745996
H         6.25926480929315    8.00258225915454   10.34840747292729
C         8.16241814621130    6.10629833686412   11.24513190575932
N         9.06855847312194    5.65724128928009   11.98321413827766
C         8.45054173224841    6.10299110715901    9.73462614714009
C         7.28063223230897    5.73562363767921    8.81724877003784
H         7.67616448879864    5.47481465009194    7.83742068654331
H         6.58769825312771    6.55720903505018    8.67781390136334
H         6.74114779763075    4.87272924286969    9.19768069334884
C         8.98513149908892    7.50230074977368    9.39158776099083
H         9.82527408993977    7.74646287963012   10.03954868982708
H         8.22196421232195    8.26683949687572    9.51053926775856
H         9.32446560581110    7.51885068636979    8.35810230566763
C         9.57768547894639    5.08655296066657    9.48578515034016
H         9.24066996729619    4.08003366257572    9.72921071044898
H        10.44311891220269    5.31146700862197   10.10935222519744
H         9.88038379814854    5.11293604064275    8.44174751948584

