71
CSD_code = EHEPEM | q = 0 | S = 0 | Stoichiometry = C21H38AsF6IO2PRh | MND = 6
Rh        7.83511545110999    4.90499810082605    4.19127962421440
C         8.65863826655792    3.48551858420988    2.91233028271914
H         9.70884522216957    3.41418134529999    3.20481929917576
H         8.60807804769482    3.73077489498388    1.85168770681411
H         8.21142687342854    2.50423650620371    3.06499846370731
C         6.87284525912070    6.64700130094956    1.80301605016900
H         7.05815988626789    6.18055811749675    0.83007004361038
H         6.44273921026020    7.63688682755547    1.64149581242453
C         9.76638714673229    6.40195131647375    1.46323571908534
H         9.42822033193146    5.49810296925520    0.93704235127248
C        11.12309961836423    6.09548076806779    2.09113831779566
H        11.78591332111104    5.64773672179405    1.35272249380592
H        11.01491750191571    5.39739552482237    2.92018897232320
H        11.59907927802434    6.99870642079726    2.46408311172858
C         9.85157101434027    7.53280105851275    0.44484203477511
H        10.38599593389956    8.38629921899401    0.85269487098117
H         8.86463146727432    7.85872669804084    0.11996127842119
H        10.40007781578596    7.19043072125323   -0.43172938792546
C         8.60221862012231    8.29964296020560    3.57680145469467
H         7.78005834677880    8.27902786945407    4.30368895373805
C         8.40789306351762    9.52708284299086    2.69247980352166
H         8.23369671800584   10.39295887281259    3.32981738532737
H         7.55371155569399    9.42947865932637    2.02554420017601
H         9.28965745541938    9.73120932343511    2.09254004102656
C         9.90968158309090    8.38922559335636    4.36246018733343
H        10.74330261078247    8.63822077838988    3.70955316289779
H        10.13440939720325    7.44616370080826    4.86040673280583
H         9.83784535891146    9.16268589979008    5.12547424433690
C         4.40669137226489    6.59990519560568    3.85440893899773
C         5.03658573405863    7.91756588254310    4.28244221527505
H         4.30559991540206    8.50731029869567    4.83524377898268
H         5.36176355239412    8.50847749297018    3.42475267739849
H         5.87390372978787    7.73581298016895    4.94920940473227
C         3.94079958346263    5.84208987523901    5.09253075010695
H         4.77296769074447    5.72372366621004    5.78642913018624
H         3.56651549536181    4.84953967038263    4.83484640694978
H         3.15240225039204    6.39396789953011    5.60308021811983
C         3.23782430668134    6.91484218417157    2.92838477725154
H         2.58787193467014    7.64579807314404    3.41020730789359
H         2.63854059053355    6.03127075189989    2.72024106249326
H         3.59084889373229    7.34785950511300    1.99015735063972
C         4.86298961718046    4.16414474717253    1.63993393362866
C         5.92451351080686    3.21736064336511    1.09410814811397
H         6.36407730173050    2.64459365061850    1.90832883073902
H         6.70790366831544    3.76507163485504    0.56762605354087
H         5.47520403386682    2.51618524383739    0.39123494008309
C         3.84404374455664    3.33727670562528    2.41840156311746
H         3.45316145238728    2.53872554137792    1.78805818017338
H         3.00315084570172    3.94251350147001    2.75435452649711
H         4.32346818111473    2.88363056915541    3.28973693103865
C         4.22282210362338    4.90624817000485    0.47125012982623
H         4.91284120531456    5.63724790731890    0.04540206394002
H         3.30731919606802    5.41431767682708    0.75696915888729
H         3.97066212762723    4.19260999356962   -0.31312938704554
C         7.37948621007283    7.55231121460472    7.90321948187760
C         7.95227384570347    6.53437128414696    6.89541425250261
C         9.17788574164851    5.97738121959583    7.25266183733055
H         9.59866851889290    6.22323781089369    8.21282825170685
C         9.89666521968166    5.12284103986746    6.41076197817220
C        11.28501198118001    4.72359324660007    6.95287366201021
As        5.82513802927716    5.42261905235368    2.96174221992426
F         6.08079211243782    7.78776218884323    7.69479801733342
F         7.52388015065162    7.18984253837671    9.17913707136781
F         8.00781613436898    8.74091893350213    7.76367061530078
F        11.89151898697918    3.82680239177442    6.17604181532642
F        11.23753515351987    4.22470026920587    8.19142535914573
F        12.09547063183136    5.80237015938370    7.00375075161948
I         6.60296297127897    3.04510091103273    5.60732486059045
O         7.28853601344142    6.39276557118058    5.85248195735560
O         9.63011001396167    4.69044519760674    5.27580270340355
P         8.45795989178210    6.61546391405724    2.77981286245646

