54
CSD_code = EHEQAL | q = 0 | S = 0 | Stoichiometry = C21H30ClNZr | MND = 12
Zr        4.02039785312702    1.80026948872169    9.73429497567873
C         5.04827836319923    3.31232217532573    8.09540061159875
C         4.16786559049830    2.44524299412666    7.38988887069938
H         4.43553741365964    1.71094557495348    6.64046533963456
C         2.83679323818776    2.75688130863075    7.75263994413900
H         1.94837016247805    2.31929583509766    7.31141527775295
C         2.87604681454722    3.82763290124429    8.66453220897881
H         2.02279891457525    4.39127037265827    9.02192722909971
C         4.22769662342812    4.16985296343493    8.88102433919004
H         4.55522709725423    5.04614528051753    9.42436032395159
C         6.55260091942652    3.43444524800622    7.88959133258970
C         6.83133538184797    4.87996694299299    7.43901245152851
H         6.14735900015873    5.13377628610293    6.63211672232911
H         7.84608386013869    4.98796991850716    7.06675769399762
H         6.67547049620283    5.59329167935391    8.24237734191817
C         6.95657689426356    2.50456313106545    6.73443687457117
H         6.75247966618553    1.46592402550566    6.99104455618844
H         8.01179647175271    2.60997695010288    6.49842119205790
H         6.39484108926929    2.76509697655390    5.84019437514034
C         7.38765048742793    3.05036135765072    9.17566772726383
C         6.92522109740890    3.82326022715087   10.42814217166751
H         7.59018789905506    3.57860442682757   11.25590600998602
H         5.90740139823811    3.53969533043892   10.71346791778466
H         6.97772450023640    4.89767760338969   10.26628117427771
C         8.86170891457234    3.42526187636636    8.99437256808966
H         8.96161169581227    4.50884270184573    9.00667403029790
H         9.28394314626151    3.05999339815535    8.06651530652263
H         9.45037885130687    3.04085050222203    9.82225262620801
C         7.08013362266401    1.55771522672043    9.49424216031611
C         8.11599364816125    0.40993990309053    9.56726704326767
C         7.34804995017530   -0.89866670990170    9.31307295452209
H         7.98998898396758   -1.75577155945875    9.50310534125997
H         7.00563118520031   -0.93925776531900    8.28040606725286
H         6.47121861204556   -0.95826827613068    9.95753252330069
C         8.63173651343268    0.39900782473764   11.01468410103734
H         7.79299909321420    0.31604168053414   11.70351381198627
H         9.18229690408371    1.30805859940287   11.24704908246063
H         9.29552926938725   -0.44975727879593   11.16673136728129
C         9.29828278733217    0.43673258740011    8.59566272099085
H         9.75518423416779   -0.55184304438401    8.58324704120539
H        10.06704025667826    1.14127598528010    8.89207676651548
H         8.97334729344473    0.66155404615518    7.58444502109710
C         4.27910656160828    1.97495051183064   12.22263391843282
H         5.21811663172660    2.10420620196874   12.74872177546623
C         3.64129773976056    0.73779258419022   11.97325908083371
H         4.03016810073455   -0.24072169068986   12.23009343013678
C         2.36259024328225    1.00527155319850   11.44259466465681
H         1.60139893463660    0.26561966013807   11.22578392548645
C         2.20788781731048    2.40388428806614   11.35219406364783
H         1.28539218236440    2.91924232300327   11.11028290281116
C         3.39126583118680    3.00690339677180   11.83706186046953
H         3.53117903695058    4.06581211089591   12.02453309101278
Cl        3.33472643933413   -0.25433374360881    8.76587872013237
N         5.91505428663110    1.26149410795527    9.84134537127555

