35
CSD_code = EHEWIY | q = 0 | S = 0 | Stoichiometry = C11H9N5O9Zn | MND = 5
Zn        4.42414304895071    6.16369048394817    7.94955888182171
C         2.22528055147851    8.07363666657628    7.25131444637409
C         0.99094733153093    8.75280901472317    7.64971739732395
C         0.27694053405299    8.32613849345968    8.77624657522867
H         0.67306123825375    7.49280280360265    9.33563953886219
C        -0.88371897996343    8.96597608725848    9.14440289188872
H        -1.42981308755175    8.63643289556916   10.01416978640870
C        -1.35855022928030   10.04283464444527    8.39647372195820
H        -2.27046486651745   10.53944082694079    8.69006093495822
C        -0.67259895723418   10.48401419849870    7.28562943616114
H        -1.02168286837467   11.31756650235675    6.69741789506686
C         0.50706022377355    9.84086257341359    6.91183842028883
C         2.29945937817907    9.72697785690676    5.46319964450833
H         2.73752018032898   10.19821334685675    4.59160616363554
C         2.88803814874581    8.66537533014694    6.08694849245466
C         4.15035091849363    8.17303892293023    5.58925548819114
H         4.55953811131593    8.68426959136953    4.71160131749761
C         6.70851509257424    5.95287903721170    6.44263163944525
N         4.78676622915365    7.21846905120329    6.13959942158942
N         5.96011166401249    6.80744426874281    5.65813471033872
N         7.95604850544498    5.70923502134347    6.00222056791506
H         8.54141504253703    5.14538447063322    6.59684676551206
H         8.40275917202457    6.28784226736941    5.31331672898941
N         3.36667578725828    4.12589803529900    7.93566563711324
N         5.90302168806319    8.26446320209718    9.03144115794320
O         2.62517391974849    7.08625004993536    7.86090870722745
O         1.16656361110070   10.30330322142298    5.81652979980028
O         6.24077876292261    5.39964976891236    7.42371427451437
O         3.57634137346338    4.69057262396648    6.85112362585977
O         3.79033720495288    4.68547076762525    8.96338435413494
O         2.78054683301328    3.08611580367127    7.99355294947816
O         6.39587829759341    8.23676139529730    7.90684581676264
O         6.24660882111879    9.05035204800330    9.87045125781828
O         4.97678124600268    7.43968532999763    9.29183987339166
H         6.41446607283379    7.35714339826443    4.93041167953475

