64
CSD_code = EHEYEX | q = 1 | S = 0 | Stoichiometry = C25H35N3Rh(1+) | MND = 6
C        -4.06346564435164    9.24370545793985    3.24846909977410
C        -6.09885438947215    9.25433720694092    2.31269498814666
H        -7.13938186283378    9.48951004080340    2.22940423202722
C        -5.29152941579435    8.56128608149979    1.48052961202991
H        -5.50435508433045    8.09503255877586    0.54207974692958
C        -2.87295274951967    7.91521123093683    1.69584213547858
C        -2.93177492267467    6.95007360137571    0.56439522143616
H        -2.02197518204821    6.35570544414050    0.53294297818247
H        -3.03663083734479    7.48615070074951   -0.37914693171983
H        -3.79000188632077    6.28810536626136    0.67174124424343
C        -0.63049152904574    7.49562036186223    2.30151048228234
C         0.27566537371625    7.78424713620923    1.27420418760157
C         1.46637201967289    7.06920655705651    1.23557385448826
H         2.17920358648836    7.27044534430841    0.45238712530890
C         1.74996991039804    6.10067330387097    2.17749791957555
H         2.67560950720740    5.54976777570472    2.12187667290921
C         0.85178077486920    5.83721036036891    3.19602476141424
H         1.08900869096318    5.08125570256954    3.92575555549106
C        -0.34511495256282    6.53109007408258    3.28386613391480
C         0.00628089960537    8.84796003561856    0.23221890626952
H        -0.95902640459231    9.32153088162204    0.44678525846634
C        -0.04453088540060    8.23859447868955   -1.17278136939566
H         0.93652432930006    7.87493169915604   -1.46509944818946
H        -0.35210524563328    8.99302303282317   -1.89277768560117
H        -0.73974324571947    7.40503814196997   -1.22654076000645
C         1.08209960615044    9.93835068852895    0.26530603260873
H         1.16249628502646   10.38985444601487    1.25124854160760
H         0.83465461569470   10.71986840648930   -0.44887755296103
H         2.05416871559013    9.53261062524603    0.00039696083754
C        -1.35090911188909    6.23949189799419    4.37898870473237
H        -1.91576159808248    7.17719242791667    4.59663491353548
C        -0.70404030584170    5.77965242933407    5.68503018045324
H        -0.32103603836632    4.76641716917097    5.59777416573916
H        -1.44556318140121    5.78276171481257    6.48050757602163
H         0.11269945734184    6.43646199499016    5.97396273162082
C        -2.35258009613715    5.18365365348138    3.90170292637372
H        -2.91108616739111    5.52841245693131    3.03492874024868
H        -3.05913001010097    4.95202015432052    4.69497128405339
H        -1.82933814830496    4.26955455962473    3.62993640456452
C        -2.78513086192592   11.23421148321615    5.16064558152714
H        -3.72013573859498   11.62213544094102    4.75962793454133
C        -1.66589107912062   12.25012404681801    5.18646037832780
H        -2.07366731713888   13.23155853626744    4.94078904770788
H        -1.26008091767598   12.31443661564434    6.19497495270196
C        -0.55770583569906   11.91795093880898    4.17080332304157
H         0.37530578016269   12.40901690824520    4.46410879324628
H        -0.83918317848142   12.32220947096679    3.19465140386987
C        -0.29933562502249   10.44077087766116    4.01058339189565
H         0.15474809190239   10.17329010628055    3.05722203019606
C        -0.24040754733312    9.51455052955316    5.01999226974200
H         0.24633383313870    8.56889045248802    4.79154528273663
C        -0.35569284168467    9.83173250692791    6.49099002532857
H         0.25988513759771    9.12797512330985    7.05296987269259
H         0.04335149028881   10.82761947076350    6.67958842866409
C        -1.80598161589262    9.71876797440931    7.00014401979334
H        -1.93203194828943   10.32975817254660    7.89914572489962
H        -1.99982864925403    8.68258439019512    7.28913842076531
C        -2.84841855157979   10.12092179170198    5.98626129549848
H        -3.83431199039648    9.70436464324048    6.20452965823219
N        -5.33288513732828    9.65680018105579    3.38006022966506
N        -4.04293228786920    8.56159537555005    2.06120011817342
N        -1.85722477753875    8.19050346054517    2.42925906712646
Rh       -2.25733035408628    9.44321912846332    4.05131390938665
H        -5.68670295504485   10.18559717419605    4.16202930975851

