28
CSD_code = EHIBOM | q = 0 | S = 0 | Stoichiometry = C11H10Br2CdN2S2 | MND = 4
Cd       -0.51315236246473    4.63328498643789    3.34039145120012
Br        1.16046312333685    5.73294159410752    4.81437540865179
N        -2.10259149370091    3.31022451568276    4.69957395407496
S        -0.08990234743724    1.57702946867285    4.82377442202947
C        -0.51297468296361    0.59787816177912    3.34058470280777
H        -1.38285275954821   -0.01822955323254    3.55422939765115
H         0.35690179585227   -0.01822690385571    3.12692470093902
C        -1.74355007342373    2.14507702034734    5.21622780135261
C        -2.57510865092464    1.37317668860439    6.01062322737132
H        -2.22378600704190    0.43701133321868    6.41446372733555
C        -3.85149381999509    1.84957152870211    6.26718267221116
H        -4.52945856957448    1.28196859433613    6.88650278146566
C        -4.23803528627351    3.06099118372906    5.71484948849174
H        -5.22389848336700    3.46184948130731    5.88570909638698
C        -3.32955750260817    3.75949406306530    4.93466405807959
H        -3.58795994463050    4.70556455800245    4.47293006654190
Br       -2.18631519463952    5.73300026832103    1.86686058736781
S        -0.93604519942009    1.57705853105808    1.85741384811344
C         0.71762394902099    2.14507748577382    1.46496999523939
N         1.07664816601315    3.31023181397101    1.98161851696325
C         2.30361438356428    3.75950614106396    1.74654159372781
C         3.21210456142146    3.06100352758624    0.96637192218822
C         2.82557042630423    1.84958823326677    0.41402353370777
C         1.54918803846600    1.37318263129490    0.67057465958657
H         1.19786484341054    0.43701426445336    0.26673461784355
H         3.50352873218115    1.28199318398958   -0.20530632320952
H         4.19797199672523    3.46185301287480    0.79552816854077
H         2.56200236171679    4.70558418544199    2.20826192334002

