95
CSD_code = EHICUT | q = 0 | S = 0 | Stoichiometry = C40H42N6O4S2Zn | MND = 4
Zn        3.74313166404895    2.41557480302537   18.83347727842121
S         3.96437700420784    4.77238759466629   21.28361987755417
O         5.27755974671919    5.11325469654637   20.78503495184267
O         2.93030049272520    5.73784179857347   20.99306989524943
N         2.24265185201576    1.63639992313611   20.10146554585630
N         3.56768202496353    3.34486222819578   20.62786314619535
C         1.19407390934880    0.83651300324153   20.26512899081136
C         0.30375521964870    1.02253982601786   21.31444890236614
H        -0.54109786427370    0.36224549684983   21.43116789074688
C         0.51377870007813    2.07646707941368   22.19699356090572
H        -0.17351655060842    2.24359298999710   23.01431645259223
C         1.59592558558647    2.90880511305557   22.02722314103282
H         1.78241909270347    3.74159311625996   22.68276154850410
C         2.46169906927550    2.66483566307436   20.94930127082610
C         0.99541461876183   -0.26679354449613   19.27429285170644
H         1.82053411665975   -0.31643879582740   18.56747894413208
H         0.07517162416537   -0.09696530107189   18.71636783571013
H         0.90087576733733   -1.22360657221804   19.78554947648212
C         4.14176481478056    4.52539331160526   23.06881539755670
C         3.52142779687059    5.35300512420404   24.00153538574576
C         3.70365976427503    5.08065689238774   25.35431321215989
H         3.22031250528723    5.71591394756766   26.08317599216255
C         4.49164067399611    4.02810496646587   25.78932326740659
C         5.12729381290492    3.24453102112949   24.83655099218164
H         5.76585724968057    2.43405149709461   25.15872369582522
C         4.96846269219348    3.48131724373698   23.47805666098753
C         5.70027208207354    2.62581865942111   22.49318251575250
H         5.03082775684583    1.88186756992413   22.06373419208828
H         6.52875815915290    2.11262407921063   22.97816429208319
H         6.07307884964106    3.24082726263437   21.67865981824868
C         2.68528662569418    6.53011158247071   23.61168412973879
H         3.26336879048376    7.21098745926193   22.99127293624674
H         2.33525853611058    7.05633839883982   24.49758006355353
H         1.83058587973156    6.22295504766752   23.01321170059110
C         4.67161267566794    3.73959427739229   27.24874240800926
H         4.18744895905175    4.49715446260982   27.85914844613778
H         5.72997287277928    3.70903492565352   27.50218223998120
H         4.24271321828491    2.76895935466747   27.49532905383055
S         4.01289074109573    0.06585671075718   16.38221228041508
O         3.00661702236858   -0.92663548720652   16.67923377261017
O         5.33759282752998   -0.23977912222489   16.87311065966092
N         2.21466674490742    3.15450158336199   17.57451798271333
N         3.58231071987897    1.48256378303604   17.03987995028629
C         1.14381927372100    3.92565089187590   17.41734635242418
C         0.25247605825417    3.71543994258337   16.37346473723794
H        -0.61073633082001    4.35248574770081   16.26200972284470
C         0.48568224498965    2.66759913858009   15.48950583120115
H        -0.20193664489314    2.48174803351435   14.67650423624951
C         1.59111694504476    1.86502041040555   15.65248311534679
H         1.79625326828353    1.03758838096396   14.99570060502604
C         2.45642699518628    2.13244957091967   16.72517984286394
C         0.92134416284182    5.02309414723599   18.40962765687261
H         0.01116012522895    4.82658900799468   18.97525920277381
H         0.79461288854070    5.97656245971325   17.89911266579577
H         1.75041400205087    5.09691052314733   19.10968265831836
C         4.17376814610326    0.31656266845710   14.59593537683324
C         3.57038374425591   -0.52946855918274   13.66617456699192
C         3.73968490193583   -0.25432726245944   12.31452054146760
H         3.27212456188600   -0.90118319839005   11.58550860323547
C         4.49871069160487    0.82025256398159   11.87348402435031
C         5.11578701860460    1.62094063546777   12.82035684522766
H         5.73125845684736    2.44910080972319   12.49827962958997
C         4.96915241556157    1.38066805393492   14.18181158298588
C         5.68235241909275    2.25805893834064   15.16101934309262
H         4.99602710572424    2.98760083501717   15.58866266368307
H         6.49693480740297    2.78911813993636   14.67169616578471
H         6.07215736139616    1.65611555850187   15.97729852974448
C         2.76775278397469   -1.72752533092988   14.06267960310704
H         1.90892350082461   -1.44200001965210   14.66589237250250
H         3.36727981503822   -2.39206155396528   14.68044550263140
H         2.42645314869801   -2.26388417582309   13.17946189790975
C         4.64903293144712    1.08754843566718   10.40668852844999
H         3.68462304010226    1.34529815731158    9.97051910004907
H         5.01847412797439    0.20056288440091    9.89471418914041
H         5.33973914947616    1.90745220466201   10.22875372886610
N         5.36184289869702    1.20531369303786   19.37426364721860
N         5.32543592159739    3.66832951947178   18.28339303861148
C         5.30121882556014   -0.07552227445269   19.68745143474700
H         4.32715713990686   -0.44505935078643   19.97549489698389
C         6.40600998447672   -0.91059812099688   19.64903287622791
H         6.31236491813437   -1.95330636258389   19.90591417668013
C         7.61468537378754   -0.37947503822320   19.23414316907290
H         8.49323053609371   -1.00255909841315   19.15416792223719
C         7.67858084315211    0.96333967616835   18.90569234384455
H         8.60147495792280    1.39340053397048   18.54956869648378
C         6.52353784823758    1.73592852514647   18.99418305013043
C         6.50313348922798    3.16973544086385   18.65748364185399
C         7.63718849240423    3.97351704624677   18.73935171073841
H         8.57328636122399    3.56904884617748   19.09097850583063
C         7.53510196412227    5.31377033806548   18.41009885257393
H         8.39683179780592    5.96054432539720   18.48475045761125
C         6.31030372173384    5.81146185671225   18.00106205001883
H         6.18710753791787    6.85091154542887   17.74344779368598
C         5.22836981485931    4.94671676538256   17.96942071720242
H         4.24306661218122    5.28937042373807   17.68641898870755

