83
CSD_code = EHICED | q = 0 | S = 0 | Stoichiometry = C36H34N6O4S2Zn | MND = 6
Zn        3.62536754867498    8.76788368489232    0.14805173086895
S         6.49054705762214    9.20712584741588   -0.35197348854740
S         1.47167910998393   10.76952431226029    0.12368857397421
O         7.44061378144264    8.95167625336164   -1.40064743647565
O         5.11687521232364    9.38702411206360   -0.87255364509266
O         2.78737511124150   10.39604991408927    0.68991656706933
O         0.64495397861406   11.45858355725942    1.07721750072919
N         4.73709191966514    8.63801421356165    1.89997305324395
N         6.67812986894564    8.06195959350864    0.73485382305192
N         2.42502815792400    8.58208617352411   -1.54039901479252
N         0.60384653017920    9.57503687779978   -0.46676459687311
C         2.86657128878691    7.85028152608943   -2.57153820679159
H         3.94002186216349    7.82563974013185   -2.68641628753528
C         2.03590351332370    7.18573335957236   -3.43474889911851
H         2.43655660125955    6.61600826137145   -4.25765644269420
C         0.65525745319178    7.25311083739262   -3.21015693393711
H        -0.02530515647300    6.70830814393294   -3.85064410993386
C         0.16775950069866    8.03054959612954   -2.19509833890789
C         1.09654234166703    8.74993931861763   -1.38442344538241
C        -1.29116369676057    8.18417126745033   -1.91262732703761
H        -1.55414915455164    9.23972448175337   -1.92685872482325
H        -1.51532661720090    7.81615113556205   -0.91297312752956
H        -1.88807415741803    7.64283524456720   -2.64310418535736
C         1.78515151466304   11.86837865893436   -1.25469579666180
C         2.97293720627167   11.79725480267855   -1.95679641468373
H         3.74136040102374   11.10590992569429   -1.64868724274189
C         3.15985713807977   12.62570112113550   -3.05067125635736
H         4.08835694073222   12.57761054032031   -3.60086629413210
C         2.17097296813895   13.51874154465209   -3.44945633038734
C         0.98118453342947   13.56852021382416   -2.72969787215282
H         0.20550995035588   14.25909127076712   -3.02803839738780
C         0.78537925887757   12.74376805409900   -1.63655092834747
H        -0.12456879692710   12.77082365720562   -1.05841120301112
C         2.37662231740172   14.39608895638894   -4.64689201684264
H         3.42350213097923   14.67118324668125   -4.74973282463562
H         1.77706126712382   15.30013276915205   -4.57481508526036
H         2.07908318622959   13.86425130838407   -5.55101590350748
C         4.09928574263619    8.68660998510963    3.07680093170336
H         3.18762096948358    9.26542722335866    3.07742287637735
C         4.55764111296932    8.06617380663544    4.20889391680983
H         4.01519191918012    8.14097543865334    5.13755708212886
C         5.73923124305730    7.31923109697301    4.12348782867018
H         6.10653935469115    6.78484975229501    4.98935390928396
C         6.44169543764035    7.28858276754512    2.94970615889804
C         5.93486272608423    8.02257634095367    1.83537959334054
C         7.72881019418999    6.54791996605912    2.78687408900458
H         8.01328860954527    6.05361958450686    3.71298036109532
H         8.51068861852435    7.24069970653629    2.48233873228190
H         7.63302400153081    5.81106322839635    1.99166056781098
C         6.94637796425968   10.73204467248063    0.46740801493612
C         8.29088097320475   11.02787157727458    0.60097540416095
H         9.01192970364388   10.35806369746652    0.16003980013609
C         8.67360533779723   12.17104453186764    1.27794296522023
H         9.72224197175637   12.41027719003192    1.38159630185674
C         7.71845206985562   13.02005836437106    1.83049096566809
C         6.37334440403333   12.69946584881608    1.68857293411794
H         5.62153494891003   13.34881477572690    2.11311906933601
C         5.98075293898109   11.55665415273989    1.01070334644771
H         4.93656414639086   11.30804120251296    0.90392133838952
C         8.13969426168818   14.26873985440034    2.54410564792932
H         9.04046543011150   14.09507438795394    3.12856120507087
H         7.35219543315955   14.62473700427565    3.20312111144395
H         8.35758410635740   15.05391428291552    1.81977333593876
N         2.09391301799061    7.58548897415490    1.21558542541545
N         4.19903274953830    6.66584292398797   -0.22590683813992
C         0.95564168095273    8.08405452880863    1.67202740939989
H         0.95586827454393    9.12682963902612    1.94689743279866
C        -0.18845871083384    7.31020678546361    1.82518827887826
H        -1.09730375399623    7.76358710839521    2.18544398501273
C        -0.13179171720579    5.96836832995643    1.49410425361745
H        -1.00612909793862    5.33920238360244    1.57649619921074
C         1.07548763469172    5.43494733365114    1.06965091059004
H         1.15977276460237    4.39098094906999    0.81176452514756
C         2.17099824652877    6.28296078242507    0.94561656069268
C         3.48828817517358    5.80338691120152    0.49949738942608
C         3.96430180377304    4.53606737660820    0.81909779670580
H         3.38007874671013    3.87165553798993    1.43610840431466
C         5.21791395791832    4.16282471549680    0.35952391143136
H         5.62425964123882    3.19418484385203    0.61185585679312
C         5.92485376095636    5.04346863912046   -0.43937559772238
H         6.89073679112678    4.78699473413354   -0.84271661619834
C         5.37235877285176    6.28952168094535   -0.70994858513168
H         5.88236156996952    6.99042186001977   -1.35148766227714

