31
CSD_code = EHIDUW | q = 0 | S = 0 | Stoichiometry = C14H8N4O4Pt | MND = 4
Pt        8.66149828328222   18.71680567947082    1.60399012420219
O        11.85355274072268   12.51324184725143    1.60406820562279
O        13.65720842423701   13.83327490384312    1.60405484842203
N         9.97923372979961   17.15447206273857    1.60397159223668
N         6.39344871264920   20.81071732122064    1.60417092292266
C        11.30742288428796   17.24331000911136    1.60393916873164
C        12.13244051732051   16.13366225879025    1.60395923009933
C        11.54455534317720   14.87061549283633    1.60399284482046
C        10.15737132385011   14.77677051235830    1.60398854466282
C         9.39542134807103   15.93911219668957    1.60398216047250
C        12.34164314320409   13.61298429813906    1.60404183947840
C         7.30420821382934   20.10786719261988    1.60431531244566
H        11.72097760173072   18.24338826601529    1.60390147067892
H        14.14183490973726   12.99262601354831    1.60408898075051
H        13.20383302968966   16.24377402825867    1.60395046156518
H         9.70915494452233   13.79646904658241    1.60399582176514
O         5.46944904818772   12.51324300675797    1.60404441187351
O         3.66579264387282   13.83327530000509    1.60403154544643
N         7.34376764356221   17.15447580709011    1.60394897812443
C         6.01557740388318   17.24331205113419    1.60392262268823
C         5.19056012868267   16.13366438114373    1.60393825499592
C         5.77844525608415   14.87061701551774    1.60397674219329
C         7.16562883376324   14.77677228343970    1.60397867715539
C         7.92757896541122   15.93911411950844    1.60397238874126
C         4.98135836007274   13.61298550969493    1.60401507338802
H         5.60202225922809   18.24338993114976    1.60388692846995
H         3.18116627908332   12.99262632399643    1.60406549269560
H         4.11916761017299   16.24377586324070    1.60392043091795
H         7.61384448507567   13.79647047964107    1.60399399767464
N        10.92955043638938   20.81071902611789    1.60415465159903
C        10.01878549641963   20.10786777208828    1.60373827515949

