97
CSD_code = EHIDAA | q = 0 | S = 0 | Stoichiometry = C42H42N6O4S2Zn | MND = 6
Zn        1.40771980390037    6.59601668913084   12.39816804831882
S        -0.23130297412166    9.01261909327626   14.02624960431756
O         1.04956888081925    9.46176941044202   14.52413549706975
N         0.18491910032787    7.11255989871360   10.76897984783742
N         0.08132426873155    8.03121454027745   12.78265011323661
O        -1.19127608477279   10.04985889063815   13.73102149700200
C        -0.06691766244442    7.02582125166835    9.46624892250898
C        -0.85225825487067    7.97250063792552    8.82481916421099
H        -1.05105777627339    7.88841608835978    7.76799936021722
C        -1.36279805629433    9.03504467916344    9.56542331377859
H        -1.96602983732392    9.78934051038176    9.08044272615463
C        -1.09763268140242    9.13129503134921   10.91205562118571
H        -1.45997892138613    9.94472151531230   11.51700751399962
C        -0.30471351895303    8.13456787269725   11.50212018986308
C         0.54642751868580    5.87653778610012    8.73005268684256
H         0.84648604775616    5.09414148145574    9.42433690514341
H         1.43846409810960    6.21733724971139    8.20438534773601
H        -0.14644979953241    5.47504204152938    7.99347915332174
C        -0.98846680029985    7.86850219224345   15.21505854650090
C        -0.53504034832913    7.71151344412298   16.52355814457814
C        -1.12364511397434    6.73704043747598   17.32448829193035
H        -0.77007570023746    6.61466236211051   18.33890194455023
C        -2.16011487792077    5.93990764960110   16.86937704816868
C        -2.63768206480565    6.16222648869526   15.58771615824603
H        -3.47766737441752    5.58482825326376   15.22707375011717
C        -2.07578355788376    7.12428023006659   14.75783511835094
C        -2.69812002318463    7.35904947286589   13.41823153400831
H        -3.73331753971706    7.02176142799813   13.42341425240877
H        -2.16269740561500    6.81400364502565   12.64243710881635
H        -2.66538613291106    8.41664882134501   13.17347972692528
C         0.49504964505200    8.59809670135462   17.14992332872612
H         1.23814818008755    8.91129444280135   16.42601097325336
H         0.97190383743045    8.09908636548876   17.99146489471109
H         0.00389444591298    9.49869629807192   17.51978354579169
C        -2.79471494071386    4.91448509482765   17.75903166944853
H        -3.17783154299669    4.08018884066848   17.17642642451063
H        -3.63234816030867    5.36023967393844   18.29566506139318
H        -2.08429888790684    4.54435023180660   18.49389309803001
S         2.94921713538832    3.81381326246547   11.36378192468981
N         3.03566409449535    7.60310825393588   11.53808615579391
N         2.79467948132486    5.40209509349540   11.61447892128304
O         4.11275459196842    3.45147373291982   10.58961546762340
O         1.67994092066020    3.35514076929305   10.84663850859230
C         3.57815111632843    8.74609968440084   11.12874546976937
C         4.64026020689772    8.75429106489192   10.23687778872997
H         5.07459144956447    9.68803012394760    9.91607248934745
C         5.12172559900952    7.53973269331372    9.75500823744822
H         5.94062565407487    7.52689362473328    9.04981187559955
C         4.55551002459799    6.35628701195859   10.16906150062450
H         4.88771501523074    5.39767916091358    9.80905127822967
C         3.49137776422058    6.41724402723568   11.08271663214289
C         2.97640437695978   10.00910074533721   11.65964069472645
H         2.25430667657988   10.39491289652356   10.93973052132407
H         3.73971224901005   10.76853980280125   11.81439296194834
H         2.44452913215628    9.81795379272218   12.58977781719542
C         3.18341283645636    3.20173305670697   13.05625284083562
C         4.21629194788375    3.78344943670139   13.79099438164573
C         4.38342029563685    3.43074055929776   15.12429991806443
H         5.18346569846287    3.88667959091962   15.69102472530670
C         3.56281178751815    2.49715886675351   15.73697512006709
C         2.58618216439401    1.88595979035981   14.96904057237747
H         1.96791270370495    1.11898160915959   15.41470390914508
C         2.38913271027490    2.21050378017875   13.62985403494540
C         1.38989751853326    1.40748724708716   12.85787601831938
H         0.90498923050581    2.00771154155082   12.09684628754933
H         0.64966245454054    0.97004698737305   13.52519205529419
H         1.91113940668632    0.59780809494125   12.34621149658368
C         3.77420378718315    2.10995337853418   17.16921201039236
H         2.84745784560606    1.76196075517091   17.61852642599279
H         4.16022037462436    2.94823129660688   17.74417493373491
H         4.50188034055903    1.30027901889068   17.22782759642864
C         5.18982409164480    4.74030341780884   13.17963192594628
H         6.11871209280845    4.74220561697059   13.74755642065050
H         4.78676973055194    5.75170135203972   13.17586236237225
H         5.39589604857750    4.45462560568514   12.15220394713246
N         2.16924692008278    6.48039190348646   14.39367445319044
N         0.21309055666588    5.03215524670923   13.23540427441572
C         3.12027833584773    7.20158737201989   14.93583358057961
H         3.56925662280716    7.95138368665210   14.30153836999223
C         3.53875481174534    7.02951303800448   16.25980321548856
H         4.33077270964023    7.64497169422646   16.65631515114339
C         2.92214099361207    6.07829643646509   17.03491146200658
H         3.21632749151249    5.91615108732405   18.06245267344229
C         1.88698644494185    5.30812336066514   16.48054653103853
C         1.18136296721603    4.31211558811702   17.21275874428977
H         1.45603610470193    4.14854715089496   18.24450823365875
C         0.19375599939829    3.59047768297988   16.63350347179374
H        -0.33839499208870    2.83220030705935   17.18885676033792
C        -0.17307982355388    3.80826104939267   15.27556841893917
C        -1.19293256158609    3.08880544302242   14.63207235881413
H        -1.74045878016359    2.33465676523515   15.17981659437295
C        -1.47147325520714    3.35423583786038   13.31389139337920
H        -2.24224504322326    2.81444162802031   12.78672793580952
C        -0.73120379751245    4.33760188282123   12.64837770040984
H        -0.90678277436629    4.55999807246674   11.60620194841869
C         1.54885536228338    5.55338720336101   15.13243932626453
C         0.50545736434041    4.78671407777255   14.51799604113966

