87
CSD_code = EHIKAI | q = 0 | S = 0 | Stoichiometry = C38H38N4NiO6 | MND = 4
Ni        6.22765702889478    3.91085921048682    3.93725738141548
O         6.45689143573358    2.66189666761731    5.34479925669059
O         5.90854826182627    0.55992069797622    5.82988793767906
O         7.26230538525630    6.46001434313600    1.28999042826289
O         8.11453019816295   -0.24873548407420    3.55643043024366
O         6.08506125640740   -1.21247894144114    3.41594523930596
O         8.11065182621712    4.35193843462390   -2.49177903209155
N         4.84350306880208    2.84610650118903    3.36951996804891
N         5.89906427336011    5.15326077435888    2.61091072309452
N         7.56383284236354    5.18364652367184    4.67607751585899
N         7.26460756105105    2.07165646651587    2.52389479677797
C         5.90093073532385    1.54428799469461    5.11995398783897
C         5.18465415788171    1.49475165978104    3.72604942735060
H         4.34760267294112    0.78963830349220    3.71380346450164
C         3.78617126079188    3.15571024604757    2.69820952497532
C         3.61722494206637    4.46374226316795    2.10897230088440
C         2.35977393420645    4.81041491707452    1.59039491311107
H         1.53722086774619    4.12288775569162    1.72232413151046
C         2.15015896361850    5.99865081089669    0.93747834185068
H         1.17318680329219    6.24633055609712    0.55167251303341
C         3.21826454420752    6.87696103951351    0.77727333387896
H         3.07351701744521    7.81202504923112    0.25647961920122
C         4.45535850975132    6.57452969156121    1.28814111253211
H         5.26518335818450    7.27221497920220    1.15931607981828
C         4.70195764779839    5.37841739501586    1.98790569395017
C         7.01019015142888    5.88065761818842    2.33128853879210
C         8.00689643617908    5.96186819846444    3.49712576326331
H         8.07557792921891    7.02928651688901    3.75209366910934
C         9.40163311290184    5.43618280796789    3.10709937056965
H         9.42041687467315    5.14183887006978    2.05867539704435
H        10.15327220760980    6.21217858523297    3.25497272648564
C         9.64213366579639    4.26019979540239    4.05273859992880
H         9.26834417306291    3.33693667585376    3.61591086757684
H        10.69254283715715    4.13305817648288    4.30756409961258
C         8.79299068055206    4.61879923412745    5.25913317503018
H         9.29735148010264    5.38660895342367    5.86261936131448
H         8.55157618659566    3.76138018507920    5.88746783621299
C         6.88063862689047    6.01813252753188    5.68685773679168
H         7.46902022786499    6.92966102461268    5.86818580077853
H         6.84106798142982    5.43286586231938    6.61028135882706
C         5.47649295924615    6.37002737550004    5.26755453581130
C         4.45944341679876    5.43038442358483    5.45455302368920
H         4.67180511711963    4.50829327499518    5.98917504849803
C         3.16882184536099    5.71069355951257    5.03573705562603
H         2.38252268727196    4.98582641595467    5.18812735948475
C         2.87994603770668    6.92386038368456    4.43255166761725
H         1.87517804227754    7.13787258227081    4.10114820308907
C         3.88124154341245    7.86195068562316    4.25830940640195
H         3.65780440449819    8.81091234351042    3.79461224297076
C         5.17351076653026    7.58722647082897    4.67397396353032
H         5.94815521740421    8.32762936130445    4.53239808128217
C         2.72367374087904    2.14465613404623    2.46128838216307
C         2.48663432695503    1.65313386068282    1.18202423567965
H         3.06956632075394    2.02226310577800    0.35054555937507
C         1.50781469989484    0.69741888400886    0.97651687537760
H         1.33199757468686    0.31742087170659   -0.01873013766439
C         0.75485556132067    0.23183230641594    2.04153179440903
H        -0.00975594607512   -0.51263962820772    1.87828805489262
C         0.98319637205979    0.72289832224816    3.31634498553652
H         0.39721999392065    0.36374019657954    4.14892751007091
C         1.96688062950960    1.67172910662578    3.52915091011891
H         2.15040859323719    2.05524523040176    4.52236518169333
C         6.26850847456904    1.02914977639777    2.70738423502825
H         5.77938900104907    0.77247672532672    1.75951063216589
C         7.49621565105908    2.57571543897367    1.22374481181052
C         6.44208094289627    2.91480739971607    0.37648578623584
H         5.42244938531633    2.74478541901882    0.68444240776919
C         6.68278711931833    3.49966465162500   -0.84594548995169
H         5.86724216646904    3.77765990604047   -1.49429092737790
C         7.98500757392199    3.76758811898393   -1.26629711133082
C         9.04090183534280    3.41322115312535   -0.43664717305075
H        10.06419220451527    3.59176945938122   -0.72755580854466
C         8.79283325619533    2.81508959571429    0.78730018866779
H         9.62955002038103    2.53541214952841    1.41240491089233
C         9.39270612463800    4.74467010932299   -2.91298514282792
H         9.84741508043064    5.44739910773718   -2.20753267232646
H         9.24998976236475    5.23945840922726   -3.87253015268167
H        10.05574167065072    3.88285094248457   -3.04824622092500
C         6.94264175495744   -0.22095806406190    3.27948413598923
C         6.54911745802153   -2.38195748243232    4.10364444713830
H         7.13954702777576   -2.05848467841114    4.96536506444226
H         5.63889201773441   -2.87704319821847    4.44532681170627
C         7.36610203641491   -3.28659038045296    3.19393951550606
H         6.78675048845976   -3.56299950306362    2.31586719175340
H         7.64211902070729   -4.18724001990219    3.73446883105332
H         8.27164435827214   -2.77661503851619    2.87541551545779
H         8.13555053901784    1.73849184821685    2.94572888266629

