79
CSD_code = EHINOY | q = 0 | S = 0 | Stoichiometry = C30H38N2O8Zn | MND = 6
Zn       -1.67876296081865    5.19881680141339    5.47050115791024
N        -0.55193670538549    3.54140209903045    6.20426320797291
C         0.58104509329167    3.57693298776333    6.86144549006556
H         0.94622721965483    4.56199102669466    7.11222206402454
C         1.28187022234847    2.41835410681544    7.21997996256326
H         2.21894282708600    2.49584647274587    7.74863908925786
C         0.75217855044493    1.19288587910339    6.89408859871867
H         1.25503693584008    0.27541333904728    7.16625007543896
C        -0.46220826981507    1.13322127033735    6.18855724712606
C        -1.09295605594337   -0.08704215404306    5.80927282804860
H        -0.61376250760228   -1.01525818419390    6.08449853114750
C        -1.06913064282373    2.36132932883720    5.84664984057807
O        -3.01483490121334    5.40567180964683    7.02815421232513
O        -1.07904679094206    6.39981050907891    6.98261288555196
C        -2.17367543377036    6.16775263368738    7.54652313457533
C        -2.45149619939782    6.81617349061712    8.89106168458596
H        -1.51457762228901    7.21925109598858    9.27470264518040
H        -3.13166082654460    7.65197020533075    8.71404547566303
C        -3.09304433522834    5.84283865776710    9.88168258892618
H        -4.11541314263774    5.63968313730258    9.55939162096932
H        -3.13203037753680    6.32006553461661   10.86397737808030
C        -2.35566900184949    4.50693363737366    9.98582171928807
H        -2.84344032586674    3.89870910422048   10.75263866677729
H        -2.45265474320016    3.98135593918875    9.03343661410963
C        -0.87422635612987    4.65179449397717   10.32437906930254
H        -0.75983207157969    5.24663505936638   11.23356656473298
H        -0.37157256011752    5.17560978552910    9.51038041394603
C        -0.21189868128385    3.28985686986542   10.51962758944692
H        -0.64518874491918    2.79165077882295   11.38983430945445
H        -0.41724558140883    2.66684721193233    9.64465887617318
C         1.29760530230339    3.41711067575206   10.70146140395071
H         1.51436821672841    4.02367170731076   11.58259647444987
H         1.71908115408911    3.92477880947243    9.83194098426555
C         1.96355809605208    2.04285447904198   10.85888744556484
H         1.67586310687420    1.59147253332346   11.80785404197628
H         1.65633019511296    1.39610653124511   10.03618752511688
C         3.45954849810257    2.19929006749142   10.82435941383438
O         4.19567163637900    2.19270625681053   11.77145658363612
O         3.90878791459212    2.38041509842621    9.56965698799961
H         4.86877391146923    2.52101519480743    9.57357763612715
C        -2.26390731346782   -0.08680853540570    5.12705984780592
C        -2.89521633057924    1.13372454915074    4.74957832663171
C        -4.10988139619572    1.19389090246980    4.04458735954767
C        -4.64015949560010    2.41960356161312    3.72055389561184
C        -3.93955292594347    3.57795723142559    4.08020787111800
N        -2.80632812270031    3.54196104193113    4.73696492015929
O        -0.34217931527639    5.40365518988112    3.91257099340151
C        -1.18218739515153    6.16716960274319    3.39448460630884
O        -2.27662122261380    6.40039897543010    3.95834206687343
C        -0.90345544015522    6.81582287229786    2.05024258112200
H        -1.84011465109505    7.21905085463725    1.66611392698634
H        -0.22347850499617    7.65160972393777    2.22802352562739
C        -0.26123658369925    5.84293174861437    1.05960678006632
H         0.76114844730326    5.64011616090674    1.38205049411352
H        -0.22221665178086    6.32040688545569    0.07743005866273
C        -0.99808096934458    4.50677438167720    0.95497459811527
H        -0.51030608423627    3.89912249193875    0.18770439142367
H        -0.90062694019329    3.98075678626497    1.90706230712428
C        -2.47966287634379    4.65136659817421    0.61694906323562
H        -2.59448930832685    5.24647837494435   -0.29200749798416
H        -2.98217132424353    5.17479936199432    1.43128474576761
C        -3.14186778815580    3.28940322254904    0.42149225986042
H        -2.70864382324571    2.79141423560190   -0.44887094438973
H        -2.93636344369243    2.66621624070861    1.29630055643154
C        -4.65138942552917    3.41664964351242    0.23984818927743
H        -4.86824447826891    4.02321401708753   -0.64126594953476
H        -5.07276214493265    3.92431531671556    1.10941855985592
C        -5.31736337143746    2.04239538766386    0.08247519041839
H        -5.02906143133751    1.59074385901818   -0.86617842080515
H        -5.01070433451171    1.39592258086791    0.90559876405344
C        -6.81337522838643    2.19891601534324    0.11586130880777
O        -7.54863612853838    2.19315023231086   -0.83196705041027
O        -7.26371623020658    2.37936723473459    1.37032569112684
H        -8.22369660995878    2.51988898913769    1.36561643947355
C        -2.28866312380267    2.36160865771311    5.09296480354182
H        -4.30513575865232    4.56320970600626    3.83077577189286
H        -5.57750596314637    2.49739156457006    3.19243079971503
H        -4.61255650308254    0.27661433477732    3.77142646047382
H        -2.74271385055496   -1.01483427990486    4.85052066966973

