37
CSD_code = EHISIZ | q = 0 | S = 0 | Stoichiometry = C10H18Cl4N2O2Pt | MND = 6
Pt        0.00070896436597    0.00021698851936    0.00038027454921
Cl        1.49467726607953    1.82212300235507   -0.31526649749157
Cl       -1.54576839012483    1.18584733022708   -1.37352010843069
O        -2.28262917384272    0.68539134937477    1.63916263902169
H        -2.49361520510877   -0.12474437165708    1.11589798413269
N        -0.90886672634281    0.82694223761319    1.62102749907046
C        -0.43165071741518    1.51896957595947    2.58092573487563
C         0.99671741633404    1.84595918954932    2.82688385050065
H         1.26856728896605    2.71420583513320    2.22143949278538
H         1.66550840836714    1.02910935814097    2.55806489858305
C         1.02529821692117    2.21165277654703    4.31310357443228
H         1.86738871305259    2.85317551412489    4.56257188034359
H         1.09255509936000    1.30372719840725    4.91342524282778
C        -0.32440171558563    2.89347950578985    4.53845475425325
H        -0.28371208414486    3.92377740130304    4.18281520597575
H        -0.61889223258783    2.90383865866680    5.58568056332085
C        -1.28749276069521    2.08113568628986    3.67202297157745
H        -1.72982825197372    1.24665525212762    4.22251734874471
H        -2.11313713232766    2.66127968987582    3.25847849158431
Cl       -1.49467669486786   -1.82165743325082    0.31428513550565
Cl        1.54556569535034   -1.18731462057547    1.37367829652171
O         2.28256140809447   -0.68531595815303   -1.63921017192299
H         2.49359459612164    0.12470588675367   -1.11579380173392
N         0.90881178255345   -0.82683646241758   -1.62100387750639
C         0.43156547543929   -1.51887650074130   -2.58089234947442
C        -0.99679755828002   -1.84587135643327   -2.82686302078422
H        -1.26865401251677   -2.71409192846918   -2.22137627576340
H        -1.66556582227321   -1.02897043848573   -2.55808944932100
C        -1.02529994013587   -2.21163770088459   -4.31308116222368
H        -1.86736269175913   -2.85318580198401   -4.56257302877143
H        -1.09254485682621   -1.30374007697292   -4.91344568521067
C         0.32440538808749   -2.89346240413713   -4.53842192032175
H         0.28373613885081   -3.92375740818932   -4.18277289198995
H         0.61893041226788   -2.90383080785033   -5.58564086437531
C         1.28743543583301   -2.08108173607985   -3.67196704559298
H         1.72977314148785   -1.24661135348647   -4.22247727331639
H         2.11309511927575   -2.66120607699058   -3.25842041437521

