101
CSD_code = EHOCUA | q = 0 | S = 0 | Stoichiometry = C36H58N5ScSe | MND = 6
Sc       11.18948388456953    6.62688790146077    5.98958417035590
Se       10.48578453730574    4.94792936480103    4.01727249827563
N        13.37748248925675    6.26297910360596    5.92095914632278
N        11.42420692518836    7.12700822850972    8.12081929722257
N         8.87477873929256    6.44764161838921    7.05718979154724
N        10.59349245176744    4.19463770182201    6.69422309004160
N        10.61041363981656    8.27334437312869    4.88492511136005
C        15.60804066793486    7.22404792473608    6.38331626559516
H        15.68996624654264    8.30123668264455    6.23398694255732
H        15.90869352232080    6.72167849891383    5.46764811074434
H        16.28966515751511    6.95533106537545    7.18740533556474
C        14.17496341676967    6.90812657190630    6.75795866079031
C        13.81572905028507    7.34249065076864    8.03677122707198
H        14.64318926935033    7.73146326275102    8.61392316390328
C        12.58715162231288    7.36200374405617    8.70333687492341
C        12.66467507818670    7.72052354648446   10.17185117632340
H        12.10054771519615    7.00739930621946   10.77180255918505
H        12.25210709545638    8.71271482366912   10.35333654797742
H        13.69563159419747    7.71574187515036   10.51290123123474
C        10.23960815784862    7.34650683038724    8.93479145899798
H        10.32669990107394    8.26820421131414    9.52490587183065
H        10.11222988578203    6.52196723891031    9.65475432769065
C         8.98642087612995    7.50156337374880    8.06887657412900
H         8.09680320298470    7.52158774204088    8.72150953345274
H         9.05132938087223    8.46173034228079    7.54564224105438
C         8.56468913477118    5.15253693043737    7.67935000642335
H         7.47797497111607    5.01827341802575    7.78882777801770
H         9.00831870149909    5.11001419703286    8.67566150202171
C         9.14327012499222    4.02180318948251    6.83606658312752
H         8.90055496578614    3.04663590390821    7.28400632229070
H         8.69318632128576    4.05560797276801    5.83971541854492
C         7.80773560048606    6.78954018325542    6.11475783291052
H         7.79184565179422    6.07414136735627    5.29281357735207
H         7.98203638526613    7.78360129839432    5.70758928393643
H         6.82539250926142    6.78314718032775    6.61045104053154
C        13.97019974475633    5.58913332277860    4.80851539694027
C        14.61484192445609    4.34958110557829    5.00618941424749
C        15.08178534742999    3.64803352470582    3.90307502090347
H        15.56425032080546    2.69348977755511    4.04887961127245
C        14.94982083980381    4.14805708435371    2.62397610119177
H        15.30985524789415    3.58117674297537    1.77852423194005
C        14.37959380955983    5.39091162654504    2.44003139357507
H        14.31479329602515    5.79853234567387    1.44391340087656
C        13.89536894256746    6.12786699711380    3.51127346492691
C        13.38190267756570    7.52859568873613    3.26198756870101
H        12.84505597009266    7.87730652116093    4.16261260102401
C        12.41623637390760    7.59661962967758    2.07698480923074
H        11.64867416374134    6.82790683757664    2.16014874517365
H        12.93703890845917    7.45937671894033    1.13246271014327
H        11.93766454022101    8.57331110727789    2.05491396919548
C        14.56600195807920    8.46956992002930    3.00685284782115
H        14.20673898398279    9.47660586394118    2.80525671573351
H        15.13976498413999    8.13080885277680    2.14609669154428
H        15.23015255585295    8.50821550658733    3.86581041406176
C        14.87240748460108    3.76458889333169    6.38167435849511
H        14.34060332361660    4.36991308900790    7.12579020749567
C        16.36958915396250    3.81377964043590    6.70947731029974
H        16.75423159231078    4.82685319864999    6.66423980951413
H        16.93081603969889    3.20788903412499    6.00169563748148
H        16.54374770693071    3.42253112376057    7.71022898177847
C        14.41012236228502    2.30645512320479    6.50016618958657
H        15.07872864646045    1.64671417391621    5.95277274248932
H        13.40769425614308    2.16324194367990    6.10612563978977
H        14.41967617729418    1.99725458441792    7.54431331931076
C        11.29401090537816    3.52717652887917    7.78855536471983
H        10.90898110682872    3.88544216620255    8.74320358395182
H        12.35636773124728    3.75957346462277    7.74155723287674
H        11.16365647715758    2.43528021957656    7.74825497598696
C        11.01448134167908    3.67171414865858    5.40290164283327
H        10.57408316669647    2.69029612720393    5.17573875966616
H        12.10132956072477    3.60281437299638    5.35148473503031
C         9.89566698698735    9.42137637749478    5.07395555232611
C        10.36121674940831   10.38860973433710    6.00927944846578
C         9.62822229532681   11.53433741453271    6.24633948320039
H         9.98795957460677   12.26503659168846    6.95481036525230
C         8.44502861174093   11.78289783353964    5.57142564912376
H         7.87979825485982   12.68105691469214    5.77140500109877
C         8.02054212016945   10.88968335564699    4.60517073777282
H         7.12709069965203   11.11952146714606    4.04485988462756
C         8.70971715444286    9.71978581887184    4.33757537916709
C         8.22712833355874    8.82845835290389    3.20662484451581
H         8.61113155377844    7.80846107096920    3.33738147001310
C         8.76981542707970    9.36803267325931    1.87879601779744
H         8.37285976237822   10.36306124497834    1.68703332215794
H         8.48712112710134    8.71250040689291    1.05799394843052
H         9.85447913823943    9.43488257613966    1.90908229669334
C         6.70207329935528    8.71132924939956    3.13140276962202
H         6.43441434454891    7.90422229173103    2.45280530440737
H         6.25230395245481    9.62587931186373    2.75302278173876
H         6.27524276030200    8.49456546769784    4.10828489023753
C        11.72878713121979   10.20718072445081    6.63102364825246
H        11.93064885851843    9.12846334733420    6.70560416150592
C        11.86600635916310   10.81548613059345    8.02569468997793
H        11.03291273954829   10.52038505017178    8.66079211020910
H        11.89736355726881   11.90168861108376    7.98052998187792
H        12.79241101292924   10.47346158437426    8.48326802181917
C        12.77665077512190   10.81094527991769    5.68925350519731
H        12.60920357974086   11.88047701047762    5.57522800390544
H        12.70515863805465   10.34304800837490    4.71096200150647
H        13.77945082624973   10.65348175560976    6.08210207865842
H        10.29192787971985    7.84301971322059    4.00897649733516

