78
CSD_code = EHOCAG | q = 0 | S = 0 | Stoichiometry = C33H38N3O3Re | MND = 6
Re        3.11922794947103    4.09864656200350    3.67515761771460
O         4.09399330246682    1.35466078421521    4.72614974505144
O         0.68955398414453    2.86843838884831    2.19561434361137
O         1.44779772898767    4.77802259455512    6.19126889993986
N         4.43789552253211    3.99944316009241    2.01170548709001
N         4.82619896635712    5.13591058857324    4.32996604626658
N         2.86009138764284    6.05267480042924    2.87838566623991
C         4.10545431912548    3.95713253713100    0.71811602893277
C         5.17450839479982    3.32237312420820   -0.03193752330842
C         6.17507159206390    3.05362417429532    0.86061203057267
C         5.71546022195617    3.53437995959172    2.14882049978350
C         6.49165138615961    3.77816087015765    3.27996550221587
H         7.51697928377168    3.43809563170735    3.27675813321039
C         6.09255386108332    4.67570957108720    4.28020458368736
C         6.93118597354943    5.51588471754380    5.11186464989433
C         6.13686065144662    6.54215240724359    5.55146448235372
C         4.82369986997984    6.31736885592826    4.98023702565480
C         3.81020893087903    7.25886632774752    4.75435226561410
H         3.84763566806472    8.19282876231291    5.29586628369659
C         2.93493865647330    7.16046746728725    3.67432581499848
C         2.21242159555507    8.24092748691817    3.03372710997394
C         1.77543224095473    7.75661330796738    1.83193604679066
C         2.24003669235820    6.38476352255227    1.74169923679036
C         2.15447048193552    5.57579187487490    0.58182892817329
H         1.41465546190450    5.91882700220356   -0.13221793940585
C         2.94910144141777    4.54199252374389    0.14540156007781
H         2.73869655149683    4.19384400779518   -0.85923619420398
C         5.14069996939776    3.08933692640750   -1.50133338293170
H         4.95405919870858    4.02171583920083   -2.03417475870555
H         4.34422681624015    2.38906579506350   -1.75491646604636
H         6.08361973093201    2.67835285785853   -1.85167374657086
C         7.48524141171753    2.37994760592100    0.64085117479319
H         8.28802226386336    2.98951795221112    1.06657978820799
H         7.68185881900986    2.28075220471549   -0.42693775905666
C         7.51338813837118    0.99472816767057    1.30581423795368
H         8.51266547584722    0.56775025964559    1.19111482812292
H         7.31954217974106    1.11526602876469    2.37382881160032
C         6.47980980601266    0.02589392181032    0.73151267442203
H         6.40629834897954   -0.83513272394461    1.39943460169880
H         5.50214494619548    0.51213744935011    0.71518418266147
C         6.83180799306823   -0.46923251455956   -0.66614556044335
H         6.86723255555599    0.35057397121113   -1.37863410655405
H         6.08645295767495   -1.18194077829976   -1.01122854258757
H         7.80161281044554   -0.96320280658397   -0.66262665669131
C         8.38964115373008    5.29917820018522    5.33402225943104
H         8.58785382830654    4.22670659767986    5.40412349591491
H         8.68462374196592    5.75881961533798    6.27980897322141
C         9.23477443077469    5.89496728938954    4.20463170651030
H         8.95227439454932    5.46707541912668    3.24502596230284
H        10.28997851308374    5.69568348670608    4.37734972321019
H         9.09251723458271    6.97158640376303    4.14868252837681
C         6.50822173019426    7.72740499107066    6.37643205912201
H         7.34903637986185    7.46939281332399    7.02399424824324
H         5.66365801216108    8.00073338624054    7.01388367527694
C         6.89582274578630    8.92907634030535    5.51021557614158
H         7.76933792658442    8.69751713067736    4.90545049552928
H         7.12889116681426    9.78679941457971    6.13711812441468
H         6.08283234156336    9.19869345107625    4.83927560658280
C         1.99493225924963    9.58542108740655    3.63594441649873
H         1.74759870560056   10.31045731232283    2.85775757395379
H         2.90853063803081    9.92871018868469    4.12843078851753
C         0.85644318068633    9.53339556846880    4.66321545811287
H        -0.05628710459446    9.20056473291957    4.16382366678974
H         1.09796501334346    8.79481621752823    5.43106648982298
C         0.61440678319209   10.89106033731753    5.31618134852117
H         0.38232251234286   11.62825513095996    4.54341566892708
H         1.52678136038711   11.21865275811691    5.82096875973126
C        -0.52857149262845   10.83458693966123    6.32182811959055
H        -1.45230794796055   10.53460698392290    5.83196420613712
H        -0.68356023380039   11.80815664810904    6.78112506401415
H        -0.30999663298117   10.11416444716246    7.10692147133879
C         1.01660962275080    8.46150311057796    0.76346870065264
H         0.08964467760591    7.93062561352473    0.54641005366867
H         1.60032538901722    8.51146821665651   -0.15615076013531
H         0.76812706061843    9.47393978666610    1.07023329966128
C         3.68491322365602    2.36093554494871    4.35058388053905
C         1.58504208940179    3.30813409298956    2.76679098856540
C         2.04955175778099    4.48287957514023    5.25762071952851

