105
CSD_code = EHOFAJ | q = 1 | S = 0 | Stoichiometry = C51H48ClN2P2Pd(1+) | MND = 4
C         2.89497868657726   14.39254032439710   17.46468101180000
C         2.96536984248653   15.78169895446934   17.18941295624473
C         2.98681891978302   16.47873103154300   18.47310658303041
C         3.34061010682790   17.77490924295170   18.80832431946960
H         3.58084459445883   18.50519605773489   18.05367876927175
C         3.44797794543917   18.12556273224366   20.14470037157144
H         3.71384181303183   19.13773008402490   20.40888999117182
C         3.26451341327197   17.18179234953957   21.14135606954903
H         3.38798957940274   17.46392782657277   22.17589078781962
C         2.97120826723978   15.86555379026403   20.82241947559043
H         2.92638234498367   15.13097481544876   21.61040693711965
C         2.80173675695402   15.51216931948877   19.49361429805962
C         2.67389097944764   14.20563471843319   18.85303544082507
C         3.03812462770782   16.16303380899249   15.86282860284409
H         3.29952483120016   15.33814513414663   15.18386375355447
C         2.16382717668475   18.44566022939924   15.86213765131576
H         1.71525534704542   18.15370037209977   16.80749681474345
H         1.37808030344584   18.80962945954454   15.19747982497415
H         2.87272027551735   19.26153900516975   16.02161044341017
C         3.07235813693128   17.46323690483915   13.83949597263883
H         3.61837812164481   16.60492369303097   13.45498691454280
H         3.67279156640058   18.35949741802916   13.67275322077440
H         2.13760125606403   17.57013958220884   13.28232559693645
C         2.43304489593544   12.91571022985214   19.29577847255371
H         2.73124097873547   12.13267794937604   18.58302452049131
C         1.09150599247182   13.25660513138396   21.31181209265764
H         0.96867334282477   14.26121233687344   20.91767051788034
H         1.57176071261943   13.30271291630767   22.29186892209810
H         0.10583002133677   12.80284720454906   21.44245044656063
C         1.81562181405090   11.03481565139271   20.66151536712005
H         0.79764365324022   10.65423441194217   20.53850423423945
H         2.13208442142319   10.84493771508135   21.68861115636369
H         2.47786343669594   10.49752083114135   19.98682484582611
C        -0.16413949799371   14.63168603295932   16.61314397378642
C        -0.36850626058317   14.78670119357587   17.98186021758841
H        -0.18001630360086   13.94998745450940   18.64068400988129
C        -0.82306954334464   15.98796029368633   18.48984511931826
H        -0.97908561386767   16.10217731793462   19.55235061676219
C        -1.08547235748491   17.04634074136130   17.63450346166576
H        -1.44472207644126   17.98391030875355   18.03030742906603
C        -0.89594672386371   16.89516624102755   16.27092252550727
H        -1.12146459291269   17.71301002489777   15.60239048848092
C        -0.42555774212459   15.69816387999047   15.76032189079281
H        -0.27637253036770   15.58242703028160   14.69507813739994
C        -0.29237062392683   11.79793004990105   16.90072187634463
C         0.42116340980126   10.66255752453895   17.27291539547710
H         1.47024379104459   10.58502242603939   16.99553062427238
C        -0.21295201017512    9.63447954758574   17.94736845619409
H         0.33731729490391    8.74744925902282   18.22467046343727
C        -1.55962037940779    9.74005102107298   18.25703706264423
H        -2.05791143222176    8.93720900866374   18.77914389109063
C        -2.27207509609701   10.87301397323234   17.89350175835409
H        -3.32178685964921   10.95046866224027   18.13412351118323
C        -1.64467793535811   11.90360316490935   17.21739051329424
H        -2.19694767597028   12.79149112055549   16.94030000923326
C         0.06678480532723   13.01300755462710   14.27701640959316
C        -1.10971669266547   12.41295043169908   13.85068665985657
H        -1.77079023636165   11.94269508898283   14.56432038278820
C        -1.41781709810000   12.40122199722037   12.50066528981020
H        -2.32745597190250   11.92688241914226   12.16465494818565
C        -0.56143928947585   12.98378088540766   11.58152254644467
H        -0.80518753472824   12.96293989292463   10.53031003659191
C         0.61716983515317   13.57971861040688   12.00504321982303
H         1.29016324842776   14.01952260818090   11.28357000243433
C         0.93131964189751   13.59047151976335   13.34922113650587
H         1.86745878989479   14.02549088383440   13.70453736047655
C         5.86636852069526   12.57520710917195   14.61392285580793
C         5.17601538466366   13.08456033810681   13.51691219143492
H         4.20658754163194   13.55773794481546   13.67546959970063
C         5.69623882035800   12.94876214386345   12.24472590175010
H         5.15702335912073   13.33417683880145   11.39199318475586
C         6.90736443278289   12.29863681957796   12.06448093451850
H         7.31186815262925   12.18191657681710   11.07065305939774
C         7.59252852710042   11.78484203569583   13.15346986553632
H         8.52939727313319   11.26898232307008   13.00667115204877
C         7.07748995164751   11.92024313699908   14.43090278659617
H         7.60487141457850   11.50656073629758   15.27842732649949
C         5.69195240706838   11.48444323461768   17.30449515805190
C         6.96332006954087   11.47739175593459   17.87182363565032
H         7.63872627247406   12.30338139373097   17.69437853033656
C         7.34951478242715   10.41641460479923   18.67083964864107
H         8.33661468169688   10.40658527609306   19.10805333151469
C         6.47574108838576    9.36667818083090   18.90936573724454
H         6.78554182967343    8.54122296227001   19.53202363267989
C         5.20862555368564    9.37244970798864   18.34795264703240
H         4.53407008507735    8.54835352753390   18.52907337406347
C         4.81566354174781   10.42969873583094   17.54737659873185
H         3.83697514377902   10.43640383389955   17.06977270169402
C         5.90722846170786   14.31657461848146   16.88937261060768
C         5.90529549969776   14.53804217080066   18.26460204913988
H         5.55146876378138   13.76080939551616   18.92925652067691
C         6.35063479145078   15.74102114816932   18.77600855059975
H         6.34382884035790   15.90779325270045   19.84249125849519
C         6.79472804748295   16.73659819388362   17.92012156792468
H         7.13618304842509   17.67845488281998   18.32133935260800
C         6.80305218446807   16.52085573407503   16.55244918569856
H         7.15830921103812   17.29239200364050   15.88525522711276
C         6.35608746875025   15.31761762845024   16.03525649580360
H         6.36371035180499   15.14824563626869   14.96631346964428
N         2.80625359020596   17.31210354301205   15.24885249430199
N         1.86012847951324   12.45196109590213   20.39617378180006
P         0.60122887681939   13.09454708131565   16.00672210872604
P         5.10155237615028   12.82236969287920   16.23812928808308
Cl        2.75001183738916   11.16322963829016   14.66899067960197
Pd        2.85068643739397   12.93434566558344   16.14456569817697

