30
CSD_code = EHOGUE | q = 0 | S = 0 | Stoichiometry = C13H10N4NiOS | MND = 4
Ni        6.87968933547701    1.68470523874037    3.34211022228690
S         8.47902415648150    1.63202505755473    7.56115692876662
O         3.88237162443902    1.70984855030273    0.82562344125184
N         8.42373051092858    1.70318007208424    2.18120675456198
N         5.96229740099766    1.70056859930298    1.78311223045678
N         5.13397694025446    1.66827911672050    4.15211243909243
N         7.82792528826410    1.67251589091384    4.88044604512993
C         9.70810781257762    1.70229110542452    2.55400000124623
H         9.90294881978676    1.68808809468273    3.61855517930423
C        10.74882465037358    1.71834670717053    1.64526577371082
H        11.76752076918791    1.71665026588683    1.99744251349102
C        10.45942514780808    1.73658381389927    0.28807708725207
H        11.25003125054438    1.74996593957448   -0.44651345112274
C         9.13383097449557    1.73724110182496   -0.10197412086334
H         8.85792506903685    1.75100999338223   -1.14483281164081
C         8.13575380574966    1.72002146337152    0.86472114565859
C         6.67907873847171    1.71836058651951    0.52809611512056
H         6.41177062155163    2.60815469218841   -0.06171889337986
H         6.41944523605964    0.84024982270546   -0.08236271022870
C         4.62854986254326    1.69824438636854    1.79531382473896
C         4.15495095904213    1.67786900129641    3.22577410712649
C         2.81059496122523    1.66923099521859    3.55826126756841
H         2.08837159866641    1.67789070762782    2.75651643190945
C         2.44967549877377    1.64999539943172    4.89458226977264
H         1.41082793354600    1.64238868156976    5.18794461451093
C         3.45748454560515    1.64001281013001    5.84576456174594
H         3.22930262492468    1.62483184905306    6.89951949812187
C         4.78269843983517    1.64963873360512    5.43720414623622
H         5.57724010346309    1.64231997744006    6.17143385094506
C         8.07192531988852    1.65499134600884    6.03876153722896

