36
CSD_code = EHOJOB | q = 0 | S = 0 | Stoichiometry = C15H16Cl2N2Pd | MND = 4
Pd        2.77451775076493    2.33754742737421    3.56358725912688
Cl        4.45122959115651    3.68740851816337    4.34686860135920
Cl        1.08107406590904    0.99932143320096    2.80718238684750
N         3.96961778488098    1.56979750102667    2.23491418120799
C         4.08267909545524    2.14794321474856    1.03115469167196
C         3.29802180022159    3.28911083240585    0.72450972135025
H         2.60702585499831    3.67015311244970    1.49031132953257
C         3.40435814775664    3.88947433736944   -0.49558647610009
H         2.80734109880888    4.75850144099461   -0.72745259703464
C         4.29148439268208    3.38776748826634   -1.47067537827497
H         4.35455310030481    3.88286919508573   -2.42795267801200
C         5.05845821488979    2.29263999692513   -1.21025969502759
H         5.73989240711401    1.90066846758885   -1.95097573563043
C         4.98239378298128    1.63662644059654    0.04349873439810
C         5.74518004412967    0.51526054318364    0.36291813080653
H         6.43551313433143    0.10769028901104   -0.36186201183718
C         5.61973999996378   -0.08138259295258    1.61576493053618
C         6.36297430187023   -1.22267459876042    2.00709821564597
H         7.05914259959971   -1.64655942716291    1.29842501818883
C         6.20152851254596   -1.76827912759598    3.24466605290971
H         6.77075676399771   -2.63799118429655    3.53630325805613
C         5.28904179055190   -1.20616584782316    4.16146008273733
H         5.17800651245459   -1.65835378625438    5.13542196108977
C         4.55416160246200   -0.10672905734028    3.82793132550331
H         3.83842997601868    0.33672330823276    4.53487552275425
C         4.69715498871476    0.48876086061378    2.54850817235886
N         1.57651036928659    3.17827053864472    4.99157111840439
H         2.20285722641763    3.85503805783204    5.44660295306419
C         1.15624887144195    2.18907895720921    5.98439131129215
H         0.56495358730151    2.65366150453222    6.78349248110364
H         2.04143383536460    1.71870686435645    6.42509857882379
H         0.54952302421298    1.42524494680165    5.49162377101734
C         0.44230647524387    3.90090131987408    4.41636962552069
H        -0.18908171249771    3.19576843208606    3.87064028097493
H         0.81116017877748    4.66426289010643    3.72416676424026
H        -0.15698917010755    4.38693770351099    5.19640811139932

