62
CSD_code = EHOKAO | q = 0 | S = 0 | Stoichiometry = C27H24Br3MnN4O3 | MND = 6
Mn       -1.09004853670481    5.11429634415426    4.31500780993469
Br       -0.59267456473380   10.95207745807399   -0.26623618719578
Br       -6.14888429365039    0.35758675869069    1.77482129592605
Br       -0.53193978938744    9.02460503458611   10.49291819424516
O        -1.38007889025457    7.04434952005516    4.20066789157604
O        -2.76666492086911    4.97633726541958    3.54052444238326
O        -1.63531089553017    5.17194835860226    6.05089131197581
N        -0.34894231255578    5.04101626709151    2.46195790290862
N        -1.01984333876792    3.16115168953495    4.61818422230495
N         0.81482677130612    5.76435170407020    5.01708112105215
N         1.78813587501787    3.25673530301602    3.62201259904605
C        -1.19000360296469    7.83054719392060    3.22758124006922
C        -1.51239364135587    9.21540188141205    3.37641172448061
H        -1.90731222184953    9.52448548375217    4.33231465163434
C        -1.33939135311055   10.11526586468905    2.36868849993210
H        -1.59235796652399   11.15599203987026    2.50561954687579
C        -0.82889357701746    9.68149459314220    1.13556468261518
C        -0.49980406485491    8.37326993188793    0.92882780094495
H        -0.10872404604644    8.05709427161137   -0.02809909207831
C        -0.65769338975177    7.41540770976183    1.95390774311128
C        -0.31358877863684    6.07523085209231    1.66408208845158
H         0.01191715744494    5.90429480487388    0.63263262896253
C         0.05274335884116    3.78123825890928    1.86058732352330
H        -0.00346056972422    3.84313049309007    0.76518962599136
H        -0.63539902980916    3.00185037349305    2.19109433517414
C         1.49915621137819    3.36071011380501    2.22418782907617
H         1.67593060701300    2.39155182100995    1.73561224373472
H         2.19480180030400    4.08394096268513    1.79201196596729
C        -3.43749782371089    3.95697900255233    3.13695211787143
C        -4.58549095630221    4.15318673802595    2.33064054339985
H        -4.82717085711470    5.16611367212466    2.04659788958272
C        -5.37402387645358    3.10555331131316    1.92921521490802
H        -6.24519612802461    3.27684838897733    1.31527000653647
C        -5.04707554151202    1.81003888826061    2.32758100238192
C        -3.94187293900404    1.56342301089771    3.10609438951908
H        -3.70310877156988    0.55243086893579    3.40400802669514
C        -3.10714066704594    2.61487712829550    3.50629040706795
C        -1.95243040061533    2.32455300026359    4.29857392653993
H        -1.87244375672541    1.28912582352939    4.64244139459640
C         0.08902434712615    2.61333298703711    5.36408217111274
H        -0.21499329822366    1.72422494371140    5.93319183459699
H         0.46002745530720    3.37017195198629    6.06022276356948
C         1.23399621376204    2.19675382750435    4.40329600537179
H         2.02086792675723    1.73814296760154    5.01846494094496
H         0.85124732177468    1.43519592205076    3.71928186596679
C        -1.40650502111138    6.03360000854914    6.96457083962838
C        -2.35961882398350    6.27961735136683    7.98739529323345
H        -3.30796621195616    5.76855052904058    7.92035893407483
C        -2.10829162495726    7.16048061510448    9.00284244518105
H        -2.85360349946477    7.35532011215896    9.75929808654604
C        -0.87296702799084    7.81386123662543    9.06191113259210
C         0.09240861518335    7.59255478580816    8.11495816602763
H         1.04269310726023    8.10356435631805    8.17650219334464
C        -0.14847460863463    6.71373483541599    7.04665816535497
C         0.88038001221862    6.48550256843099    6.09117243402654
H         1.82792978278964    6.98710842489866    6.31716764345459
C         2.03593393777246    5.67391923677252    4.24932186160729
H         2.80467426146292    6.34513187396744    4.65935759912749
H         1.82838836810312    5.97964949597267    3.22026123593598
C         2.62040013705529    4.24339689277124    4.23878097229138
H         3.58675347256654    4.30011908067011    3.71359927125929
H         2.81454487804977    3.93437380975978    5.26789378302980

