39
CSD_code = EHOLUJ | q = 0 | S = 0 | Stoichiometry = C13H17N5OS2Zn | MND = 5
Zn        7.17282435163718    2.21708841116657    2.49316942190769
S        10.62601904546980    1.97787729306216    4.92270627094134
S         4.15600278170153    0.77547598803978   -0.57938165197073
N         5.42859303258231    2.57874366381679    3.83020487265479
H         5.71527703348934    2.20453252851873    4.73719758278894
N         7.60240465672070    4.12565090005601    3.25274875421182
N         8.94187694984266    2.84833998394427    1.43640166413155
N         8.25771742245849    1.26304604076947    3.70718220031848
N         6.23056776747692    1.57793348961782    1.04122140998355
O         4.41325624560411    0.20014074038012    5.18927132533956
H         3.55831119549697    0.34921929984930    5.60898709890317
C         4.29646234139626    0.42731167249847    3.80350982112068
H         3.44594424546796   -0.11787771628752    3.37923346709973
H         5.21896985778221    0.04809005929909    3.35684499534198
C         4.16792029507489    1.91918893934401    3.49547764430495
H         3.95029509579075    2.06397975168726    2.43651672573495
H         3.33993267488145    2.34255354665630    4.08747583669210
C         5.30820449314603    4.02602183040191    3.92872373245081
H         4.59505577414668    4.33221078631578    4.70896129941068
H         4.94955107650135    4.39581563277677    2.96389277303428
C         6.67913038248022    4.63409840397197    4.22269898385792
H         6.61244262436773    5.72812300970821    4.19027958791816
H         7.00494690926333    4.33528232863175    5.22746623142692
C         9.49280078291740    5.52924180524604    3.98170901347618
H         8.78939276048037    6.04778831373675    4.62602469135734
H         9.99806530523275    6.25765418883240    3.35103895806485
H        10.23851181804256    5.03997502880718    4.60726831402023
C         8.81589361943344    4.49115104172105    3.14660947938275
C         9.60607807522501    3.78346457204199    2.12151453761546
C        10.95584089121978    4.03333679523437    1.88784476187876
H        11.49071862404009    4.77574879668651    2.45648250607389
C        11.61689843072720    3.28812444066052    0.92498568950718
H        12.66716083045646    3.45341482805197    0.73743158173677
C        10.91277676319854    2.32820708205480    0.21671417338312
H        11.39229020637979    1.72745952749777   -0.53918014084964
C         9.56920569170514    2.14529489891498    0.51245860080620
H         8.96882630300928    1.40842173363614   -0.00257917396245
C         9.27376556165784    1.54574019773646    4.23182341504592
C         5.34016808350078    1.22913016491381    0.34886354486505

