82
CSD_code = EHONIZ | q = 0 | S = 0 | Stoichiometry = C36H41NO2SiW | MND = 9
W         1.18181497495165    1.20343793495570    3.33242200855854
Si        3.35363268662419    4.45683690226362    3.54173157677791
O        -1.55713590289847    1.81692477774282    1.99386055306714
O        -0.74859105383055    2.75911531859772    5.21991190966036
N         2.51482071249966    3.01846598748443    3.03376241784218
C         2.01332244631503    2.55308313942032    1.97807754930914
C         2.18381126680964    3.04514732181779    0.58437060972748
H         3.15040742206749    3.55041021056106    0.48331225559446
H         2.14080638033342    2.20305458601126   -0.11049646357756
C         1.05183166239991    4.02259465079266    0.25474360866598
H         0.08772205879079    3.54195159890582    0.40375026147370
H         1.12970520680482    4.34400817342849   -0.78113442323866
H         1.10706930820408    4.89642985905046    0.89941941687276
C        -0.52247454380121    1.57829673444423    2.46335285999504
C         0.02116351011334    2.23713657847932    4.52712143928681
C         3.97990392100056    4.05425767586649    5.27855640688343
C         5.21878203581207    4.47925282732684    5.74555945805305
H         5.86705864881968    5.04420598299285    5.09024981775590
C         5.63576164699101    4.18917165769202    7.03151451857825
H         6.60619889228229    4.52540913397312    7.37017492363111
C         4.81912170527636    3.47501126187047    7.89888075221662
C         3.57394829442394    3.05815835883675    7.44100461200490
H         2.92003021400914    2.51221461627647    8.10786251476269
C         3.16264768385119    3.34125572705630    6.15292797895831
H         2.19159697556428    3.00538962780799    5.80976483397175
C         5.27248653921005    3.14308909572842    9.28797727686946
H         5.71052488945738    2.14410690925644    9.30980239683459
H         4.43434041252064    3.15568053235369    9.98142309656714
H         6.02576518685628    3.84874677281426    9.63030495065360
C         2.07781445639980    5.85306766561911    3.57686737294975
C         2.45325354040768    7.18190595346064    3.75829472414493
H         3.50069572910140    7.42540236082360    3.87028137384150
C         1.50976796378059    8.18936003083599    3.79621434851922
H         1.82260432963677    9.21527641946701    3.93455023786980
C         0.15541055609125    7.90147725254142    3.66084453623934
C        -0.22445404219553    6.57704075422529    3.48981065400911
H        -1.27076018600849    6.32736339232621    3.38853181909732
C         0.72076059795950    5.56875881885782    3.44931356715749
H         0.40213955239507    4.54161872271418    3.31665023698711
C        -0.85932050035462    9.00244763294543    3.71032203477247
H        -1.85561981000211    8.62260130831611    3.49977230096717
H        -0.61825661632825    9.77758493910932    2.98407847292438
H        -0.86621413302628    9.46352389206901    4.69771041710804
C         4.77145762617145    4.80904543587436    2.33362458414688
C         4.68323174436193    5.82375467642351    1.38549089928774
H         3.78907498992973    6.42910463954626    1.34040739911475
C         5.71796368470152    6.07070018960815    0.50227697336854
H         5.62372884319343    6.86655378081282   -0.22353250612623
C         6.87841657763056    5.30834127496132    0.53469826769683
C         6.97135245942933    4.28927364992110    1.47613549772924
H         7.86646443380994    3.68377526731374    1.51632471711998
C         5.93615550110213    4.04576853451450    2.35732546699840
H         6.03375177814991    3.25131859362897    3.08434321161463
C         8.01416785503029    5.58335042558051   -0.40235920534277
H         7.68667246909229    6.18539536606263   -1.24634917087176
H         8.44153381313007    4.65438492830811   -0.77491349494923
H         8.80281668264028    6.12730169052716    0.11858780349089
C         3.05957427376769   -0.01851630113185    4.03606597095077
C         2.75496648620502   -0.36882633264046    2.68148761788358
C         1.47377300551203   -0.97843315753187    2.65927269437990
C         0.95140902480612   -0.95948618532793    4.00558106345501
C         1.96877151006550   -0.39780764310256    4.85280133107794
C         4.39326203560711    0.49478954832600    4.48968309617997
H         5.12491511426506   -0.31714829904576    4.48892370552782
H         4.34232696942166    0.90902457178534    5.49464584872243
H         4.75953105385733    1.27767248924576    3.82375275831934
C         3.73986934453641   -0.31965463624056    1.54903151644864
H         4.34723827369822    0.58544030157986    1.58896057258027
H         3.23409879871178   -0.34875234148897    0.58521282094186
H         4.41381956332362   -1.17853463924638    1.60180686753695
C         0.84285060595675   -1.69133505860693    1.50014174900396
H         1.17300090430019   -1.27291862480864    0.55111078008569
H        -0.24272886833282   -1.62020934013070    1.54296762596198
H         1.11599737331908   -2.74907422959374    1.51955866399190
C        -0.23871051144235   -1.74333869305751    4.48458520220421
H        -1.03106599055957   -1.74444331132181    3.73769856212974
H        -0.63963662195406   -1.31939182589653    5.40371976139730
H         0.04700105822797   -2.77960467949342    4.68202490434387
C         1.92569596173961   -0.38855303103596    6.35217870946030
H         2.17394828354570   -1.38090699973055    6.73663754294575
H         0.93315362415661   -0.12512104813669    6.71547719989969
H         2.63975564955959    0.32298791645028    6.76126177680570

