52
CSD_code = EHONAR | q = 0 | S = 0 | Stoichiometry = C22H25IN2ORu | MND = 8
I         9.92400305076919    3.95566651680920    4.56857326172243
O         6.90940280730837    4.87954835961086    1.58628671799548
Ru        8.45090468617359    2.61477419082889    2.74084159299608
N         6.12509525442252    2.72756008694882    4.79264672808551
C         7.14337965907688    2.06129794754299    4.20360943441335
N         7.14501983684973    0.82719121732899    4.77977254487064
C         5.79084130401904    4.11329745027987    4.59578194068536
H         6.70531705429618    4.71080858569280    4.56032190142432
H         5.17878502984250    4.45100665692509    5.43020598582552
H         5.23621149802401    4.25567161163887    3.66616185814550
C         5.49068789375352    1.92396955052674    5.70147124349017
H         4.65084189420850    2.25710437760273    6.27526519202664
C         6.12955964399102    0.73489896315524    5.69850544524663
H         5.95216596322809   -0.14549060528521    6.27903461804239
C         8.21720351266163   -0.15319973242911    4.64030764828157
H         9.14737213470893    0.36704522215416    4.91778957125377
C         8.35878832931747   -0.63850188733550    3.18034496547624
H         9.06955604795734   -1.47164668342594    3.17153083482462
H         7.39835809917135   -1.01232499990762    2.82082065943787
C         8.85065172842398    0.46830294317716    2.29616059969773
C         8.10780274282862    1.09977455887355    1.23102580359792
C         8.98576523497603    2.06534568595481    0.61893880143540
C        10.18257777724913    2.10929248833055    1.37021200471436
C        10.10944878284037    1.08885098500096    2.39377789996933
C         6.84686155933930    0.57348555252646    0.61085158267437
H         6.32492808555398    1.36024709813531    0.06933860966877
H         6.16556460723034    0.17432836600769    1.36151426772080
H         7.08475555273353   -0.22522251519864   -0.09647134470073
C         8.72590947081318    2.76806116939815   -0.67933317321558
H         7.67557331781352    3.03432274126592   -0.78742904935202
H         8.99642471395103    2.10862823566352   -1.50756449535315
H         9.31730796590354    3.67801453564186   -0.76087541109716
C        11.43568722887173    2.85277465638943    1.01956070995476
H        12.07941135984998    2.22290941723233    0.39980569066316
H        11.99007421268767    3.12720064170973    1.91593132152491
H        11.21332438697404    3.76303337435864    0.46538999231135
C        11.29260980402314    0.62690412729918    3.19323850993512
H        11.07884261668210   -0.30956059044773    3.70701667566676
H        11.60337800097042    1.36337856008487    3.93566138475078
H        12.13775008472636    0.46446825991523    2.52191762790733
C         8.03671742741098   -1.31807538291428    5.58177460717947
C         7.06927080473382   -2.29154694293419    5.35497858343420
H         6.40666392920176   -2.21006742680421    4.50549149252895
C         6.93855520943199   -3.36421575902835    6.21819138328735
H         6.18291317987453   -4.11274928077160    6.03115824770774
C         7.77308610755506   -3.47888281749850    7.31737369590683
H         7.67095366601690   -4.31807068741877    7.98873739951337
C         8.73627909257426   -2.51327058620553    7.55169685130904
H         9.38876098878882   -2.59427118483633    8.40781776332747
C         8.86660667408716   -1.43894917330344    6.68877746838307
H         9.61827504825817   -0.68619079465568    6.87845490206297
C         7.46577493787363    4.04127291631265    2.15550745259840

