74
CSD_code = EHOPAT | q = 0 | S = 0 | Stoichiometry = C35H33Br2N2PPd | MND = 4
Br        8.89484864781612    1.64839620960115    1.62206900562024
Br        6.63425112339285    2.79727321953343    4.05455414339579
C         8.44792667168470    5.26610825287643    4.08549161721662
C         8.74748295966696    6.75826281173276    5.82818069081517
H         9.70542109817998    7.24470952974218    6.03846322089870
H         8.17411224654480    6.69899747093141    6.75803796419062
C         7.97259308911244    7.44653800098875    4.69673936756845
H         6.97948184004520    7.78329977665097    5.00778330445934
H         8.51566236229796    8.29753342713742    4.27074261729656
C         9.64568153509688    4.39456552115237    6.05204817813510
H        10.71947899260183    4.62063403117751    6.11666580972736
H         9.51495189551325    3.44442619941847    5.49908820183930
C         9.06291743536545    4.26501460216908    7.43594132674675
C         7.74211566540775    3.86174495443966    7.59354293997256
H         7.14758654185734    3.61621447318547    6.72593064422313
C         7.19450466088777    3.76055242603974    8.85947789594320
H         6.16965780266641    3.44180440816930    8.97276488827709
C         7.95922242365515    4.05837873551102    9.97535258907173
H         7.53190439862035    3.97516519481722   10.96356978690287
C         9.27556412059164    4.45840396357250    9.82271102272136
H         9.87714533346880    4.68810741108784   10.68986672981149
C         9.82445600515926    4.56546769433735    8.55660981820935
H        10.85355811857503    4.87713532424581    8.44005718632173
C         7.11756719504340    6.57019197465330    2.47645880330606
H         7.09033868534434    5.58550270927799    1.96884882656947
H         7.64189744342347    7.29163926329780    1.83534410155646
C         5.71190189789647    7.03798690834955    2.75533502353776
C         4.82253368717464    6.19214382480988    3.40733645281445
H         5.13272771923728    5.19572026547152    3.68662924942668
C         3.53880118167357    6.62123696928150    3.69164008421354
H         2.85384451443988    5.95583225095771    4.19441594620507
C         3.13398478586105    7.89472981606616    3.32681229630530
H         2.13043471871706    8.22812205548811    3.54561837897218
C         4.01696698544694    8.74030065495106    2.67703711868810
H         3.70498652598219    9.73351970886206    2.38913654758537
C         5.30371718853215    8.31486877285282    2.39571292769214
H         5.99292148579853    8.97633006132571    1.88852284537289
C        10.81110809411700    6.18318539604376    2.14696594793408
C        11.33247343743002    6.64584304322250    3.35317934075922
H        11.63438638487103    5.93093973160198    4.10824360845200
C        11.48008271841135    8.00081565063812    3.57759540271034
H        11.89601559696018    8.35192863489588    4.51136630266344
C        11.09742299258041    8.91144438688960    2.60447317838577
H        11.21038127737280    9.97079205385388    2.78116505470040
C        10.57414972687771    8.45917903973273    1.40465600199718
H        10.27975474225078    9.16618406603994    0.64259579811282
C        10.42678438905595    7.10221946914018    1.17623483711286
H        10.02026936061450    6.75199925913124    0.23675390441812
C        10.49347761571464    4.17131088481015    0.16189356313187
C        11.62902039111895    3.86652267220597   -0.57493071363666
H        12.57914274542789    3.72509413082967   -0.08090360506718
C        11.53000362788987    3.71376686257476   -1.94760168436852
H        12.41108656940405    3.46584200288277   -2.52099225525110
C        10.30974865386392    3.86475296913518   -2.58350024925388
H        10.24032534275527    3.73808538937376   -3.65351079509781
C         9.17111285319608    4.15582022117030   -1.84755834998720
H         8.21473589958547    4.25085792955776   -2.33969668648893
C         9.26189792702660    4.30248751417147   -0.47820943587831
H         8.36632819783179    4.48452785359413    0.11782098320909
C        11.97116840268257    3.65278550888428    2.65165213248213
C        11.82788667975953    2.56608882561690    3.50942289222908
H        10.83357884705339    2.17124762873276    3.72584266006441
C        12.94368682852469    1.97779199710188    4.07707889868875
H        12.82864673121069    1.13142372477652    4.73733280710997
C        14.20486903875262    2.47603733718845    3.79496212042529
H        15.07749722446612    2.01565254092436    4.23384782518804
C        14.35088227970964    3.57066198403034    2.95624539130498
H        15.33510727224801    3.96398464723554    2.74703476544793
C        13.23969307199706    4.16474116171189    2.38780928793754
H        13.34927750550466    5.03461795601921    1.75331223570082
N         8.97442247498338    5.42291802194731    5.29057313551199
N         7.85895922692648    6.38852395137225    3.70231716972718
P        10.46923436073148    4.40024564909346    1.96271897660229
Pd        8.61423252841462    3.63662102967847    2.97557200147506

