139
CSD_code = EHORID | q = 0 | S = 0 | Stoichiometry = C60H70Cl2O4P2Pd | MND = 4
C        -0.41652838974291   13.37372048998332   10.05003265316385
H        -0.14041867366626   13.70808725732599   11.05566716657064
H         0.19095004672681   12.51712600181308    9.75400876080735
C        -0.27756099428861   14.49036776254900    9.06131718215503
C        -0.52372134597095   15.80018650981677    9.44670775714828
H        -0.78760938613085   16.00742711447202   10.48303949889067
C        -0.35594422785105   16.84503674585772    8.54769918136188
H        -0.48716570015748   17.86597763098940    8.87509239231853
C        -0.01199848490438   16.56518139401807    7.23879440197930
H         0.10157694215435   17.36673909820063    6.52395129503137
C         0.19200847813612   15.25848118774095    6.82441556902831
H         0.44468392380916   15.06704056585355    5.79336617387585
C         0.07935741251764   14.21400757115661    7.73207317306374
C         0.55206604782952   12.51262985728005    6.10839909766938
H        -0.32750546390715   12.74599821180009    5.49191889489590
H         1.42011432214799   13.04622874357233    5.69639807207837
C         0.82159660789067   11.00995253799279    6.10010898709947
H         1.74562454147633   10.81677700837875    6.64896862161221
H         0.00990113578674   10.50238567080342    6.62405966947931
C         0.93754721129467   10.46994028794205    4.67724953707691
H         1.62272214528133   11.10104028771717    4.10573148794060
H        -0.04014432076497   10.51819935921310    4.19301287865448
C         1.45446650783609    9.02877810210468    4.64393653073410
H         1.50682936239481    8.70766405014393    3.59840564290749
H         2.46610613551519    8.99133968227664    5.05358963138673
C         0.57384910213115    8.07962454928051    5.39436601029059
H        -0.48207204030196    8.14289319412244    5.16326677171595
C         1.01023515090876    7.18827845744950    6.26863291020448
H         2.06830325966183    7.13004498143269    6.49395984607311
C         0.15005340325579    6.21880496974937    7.01646079389382
H         0.44681890044943    5.19963411074902    6.75151673641179
H        -0.89318740771337    6.34992776904541    6.72589949342335
C         0.30597837714638    6.39396227199471    8.53221911185916
H         1.36056240969030    6.27480157456802    8.78888372618740
H        -0.25350737291757    5.61425517306012    9.05365459678506
C        -0.16597830702813    7.76882956123423    9.00287207836178
H         0.27413872923350    8.00636806541489    9.97206384633856
H         0.17104506120225    8.52343807962677    8.28953604474480
C        -1.68710007007484    7.87008655881453    9.11365918604552
H        -2.17204108712795    7.28965782832851    8.31666908376936
H        -2.02758618527303    7.48259262460749   10.08354894402594
C        -3.32901728742459    9.61814920437120    9.06276253371893
C        -4.38727817081199    8.77007963839202    9.35818585233420
H        -4.21638824522893    7.72143844508744    9.54599954386605
C        -5.67978681203355    9.26682815837458    9.42419405146449
H        -6.49000188869073    8.59474101377946    9.66664989374837
C        -5.93281523754761   10.60189103721821    9.17513117262333
H        -6.94220845017640   10.98280684699566    9.21602659324876
C        -4.87941541633780   11.44794575934611    8.86952100693184
H        -5.05119634379228   12.49087274758264    8.64088094575517
C        -3.57908938904420   10.97647090363965    8.81697034304123
C        -2.44272741566186   11.91775402468455    8.57209320157945
H        -2.67787356926617   12.62242017051805    7.77058326204719
H        -1.52527979695686   11.37604021326680    8.34389965827660
C        -2.21931742428268   11.57762262426352   11.36851330418721
C        -1.23095176857583   10.60248065717557   11.43536804348427
H        -0.38168780931707   10.63690461779272   10.77002137534259
C        -1.34287775752156    9.57328626817021   12.35172223119037
H        -0.57247833502304    8.81661185328126   12.40722387026896
C        -2.43691675339673    9.50555191697051   13.19953353842372
H        -2.51926469633161    8.69481608782695   13.90933629675541
C        -3.41756996367414   10.48058400444545   13.14104627817866
H        -4.26739624105174   10.43865384570238   13.80638498647503
C        -3.30549917838397   11.51408867126244   12.22965850335335
H        -4.05190408969227   12.29669451925528   12.18647114051291
Cl       -4.05080532742036   14.92354641144698    8.22454608163967
O         0.32002372938082   12.90024461104327    7.44531298055545
O        -2.02204266850857    9.23296777405626    8.97952752644852
P        -2.19849213303143   12.89952083586049   10.12063957023254
Pd       -3.36588509960072   14.83417015813120   10.40433630429798
C        -6.31342965697121   16.29716046988906   10.75472960160781
H        -6.58689510380992   15.96564096617885    9.74739401540864
H        -6.92147442141165   17.15324763394120   11.05096995739738
C        -6.45631540457073   15.17763691298771   11.73960273496133
C        -6.21317340331829   13.86845143215042   11.35009462643246
H        -5.94809760367990   13.66417700448473   10.31354773419531
C        -6.38596707296773   12.82082454247745   12.24494212438793
H        -6.25732557055440   11.80062677950886   11.91417654570107
C        -6.73187381806916   13.09687082386361   13.55411284748371
H        -6.84959654486085   12.29304911427235   14.26574541714507
C        -6.93272135150129   14.40265371387036   13.97278256308588
H        -7.18702578878498   14.59095731814577   15.00400412790711
C        -6.81505505797321   15.45012829298155   13.06918176694809
C        -7.28693472105190   17.14549001749026   14.69863280564130
H        -6.40991735758535   16.90621334832796   15.31647983325090
H        -8.15786876975526   16.61260053066745   15.10547478940965
C        -7.55186110434942   18.64888638132243   14.71435490759519
H        -8.47274250438051   18.84812440191244   14.16238613360659
H        -6.73618782394711   19.15723823491821   14.19741335243978
C        -7.67296947623436   19.17987705272347   16.14020590852889
H        -8.36211586272869   18.54645160265643   16.70435365958377
H        -6.69757448430704   19.12602098583264   16.62846608227773
C        -8.18686882903991   20.62186836115997   16.18139525995248
H        -8.24335993422969   20.93546114805279   17.22899736191106
H        -9.19654973763358   20.66449019326868   15.76745072630625
C        -7.30086562561474   21.57465420692286   15.44200903451659
H        -6.24592461182986   21.50630647857873   15.67605787659638
C        -7.73179958734507   22.47479877169185   14.57409976569894
H        -8.78896431660247   22.53803157523856   14.34589551557950
C        -6.86639771764134   23.44793722938389   13.83715980576936
H        -7.16174824386847   24.46575145875432   14.10879852409153
H        -5.82458559557343   23.31204395155552   14.13059759854397
C        -7.01713223098596   23.28482143557735   12.31953509186530
H        -8.07033779944938   23.40963315829456   12.05989373422189
H        -6.45301360707142   24.06652885111945   11.80616420491640
C        -6.54845138064969   21.91186029322532   11.84012045575760
H        -6.98642019277774   21.68328212124133   10.86778979258126
H        -6.89048063668558   21.15315254803431   12.54669499547660
C        -5.02736746991494   21.80561479355263   11.73317056391671
H        -4.54250122496399   22.37773506446660   12.53621680317274
H        -4.68251276388927   22.19956259695979   10.76746351983396
C        -3.39338479334585   20.04926713660609   11.76880914391614
C        -2.33130671003105   20.89472644719381   11.47948378727424
H        -2.49731656090397   21.94584383633161   11.30135321387979
C        -1.04129140409819   20.39242627588488   11.40735761229291
H        -0.22815230210621   21.06270556975005   11.16976734578904
C        -0.79436536622804   19.05404533025160   11.64446590730864
H         0.21311757902350   18.66862298114646   11.59908965509975
C        -1.85147176926569   18.21058118599853   11.94400631332180
H        -1.68447272200847   17.16501381793525   12.16417023353588
C        -3.14952725208417   18.68769499187998   12.00227853405488
C        -4.28930291843590   17.74885426418232   12.24126627021180
H        -4.05856044420701   17.04163474342796   13.04183087055999
H        -5.20611231853936   18.29218657660329   12.46804978072724
C        -4.50961452132377   18.09602085462344    9.44522883413505
C        -5.48964495029523   19.08065941508833    9.39385776684218
H        -6.33023128684599   19.05238941794674   10.07045136241734
C        -5.38005606141776   20.11150716705084    8.47913799378026
H        -6.14365811181228   20.87583992497902    8.43614510979142
C        -4.29699288275476   20.17109039169548    7.61668297213991
H        -4.21638852484777   20.98299821283238    6.90802945423363
C        -3.32499904026480   19.18667656265850    7.65955945213272
H        -2.48386944662862   19.22233272402422    6.98288640892823
C        -3.43435140000410   18.15186370367528    8.56996517819129
H        -2.69434799350321   17.36273492091979    8.60119438825400
Cl       -2.68347737073603   14.74001660418249   12.58478578051198
O        -7.05236794035513   16.76345862332046   13.36057517091290
O        -4.69831836384842   20.44030793721371   11.85739436417652
P        -4.53095293178052   16.77094266649424   10.69012140281858

