85
CSD_code = EHOTIE | q = 0 | S = 0 | Stoichiometry = C39H33CoN6O6 | MND = 6
Co        0.45011427901138    3.89802507302977    2.66706770158900
O        -2.98881380783526    3.74002964521700    0.66655097760851
O         1.02388546761434    3.66062462654361   -4.11759516411565
O         2.76950388192477    5.35857402540443    5.58251870288955
O         3.68674101086045   -0.60026764046254    6.79900918874376
O         1.01609358554380    0.43219979201822    0.87044814925491
O        -3.75926382221361   -1.08504820076500    4.55544271279445
N        -1.15034259098188    3.87616613944527    3.68406970666103
N        -0.75491823911095    4.01663298030047    1.14374261008309
N         0.50245762883134    5.81793636969014    2.91205840091298
N         1.66432887054834    3.88912644816659    4.19498430557809
N         1.95316201425693    3.77120110965380    1.53603141691116
N         0.34657454133900    2.00025059247047    2.41676551722466
C        -1.29476072160687    3.85107430358154    5.00642822145636
H        -0.40215121537545    3.99336166723574    5.59760746012682
C        -2.51766400027228    3.64732820133824    5.61929751042703
H        -2.57763659979490    3.63094218759959    6.69597990033451
C        -3.64631565585159    3.45641468747568    4.83476601875770
H        -4.61054923506431    3.27740677330246    5.28543928308488
C        -3.50282671806671    3.51117176651771    3.46217910626047
H        -4.32782225910927    3.38806296234520    2.77804109519036
C        -2.24128433100677    3.72499623305875    2.92524573503320
C        -2.04156929390483    3.80160691605266    1.43930962108333
C        -0.35217955716454    3.97709108227938   -0.19922514289907
C         0.45603810151093    4.98121098658162   -0.72680113312597
H         0.73030659976610    5.82876232328869   -0.11489123970852
C         0.93092424621722    4.91561009469114   -2.02430277007835
H         1.55869722725026    5.71481951880680   -2.38769676336972
C         0.59522597947531    3.83831036367499   -2.83497658015464
C        -0.24141705824077    2.84472791884270   -2.32407509705781
H        -0.50606600970675    2.01854622116183   -2.96419138745812
C        -0.70650332899875    2.91190383980174   -1.03224879459829
H        -1.35177108060654    2.13625747982728   -0.65438250010872
C         1.85335223377434    4.63960576105680   -4.68955151282573
H         1.35335296569918    5.61245565697199   -4.74134062100556
H         2.06716082205157    4.29251501137793   -5.69913138220127
H         2.79368195924480    4.74511954803694   -4.13743578132191
C        -0.19192269683519    6.75929504640221    2.27427508382723
H        -0.86669020343626    6.42572359793512    1.49869786085682
C        -0.07460739552764    8.10449755931007    2.57600971151133
H        -0.65493109456122    8.82672660713543    2.02410147037747
C         0.79077911440936    8.50115964891636    3.58722405431948
H         0.90770586484843    9.54460335435024    3.83734755347745
C         1.48633659390650    7.52283041060007    4.27142069911473
H         2.16340765833820    7.73866773185085    5.08350624805436
C         1.31104312811628    6.19335907179728    3.90836576956116
C         2.00397189039977    5.09526358588433    4.66078287305359
C         2.18364802792263    2.77127233137102    4.87102491900538
C         2.89985887550856    1.78252525570458    4.19459368865411
H         3.08528156458136    1.88222773238796    3.13735139046838
C         3.37666027016846    0.67857858268448    4.86330211837432
H         3.92332170303231   -0.08973388662394    4.34028824400177
C         3.17130477892074    0.52966775257304    6.23579282710323
C         2.48096600487966    1.52118182929032    6.92229600296966
H         2.31411611843387    1.45215392405443    7.98601342174161
C         1.99491363655694    2.62392171295040    6.24352313885914
H         1.47464790369027    3.39120533697327    6.79766033367910
C         3.53144132745774   -0.78906391353747    8.18309010569537
H         4.00917560915080    0.01303559271670    8.75547210827907
H         4.02363315820812   -1.73373163520080    8.40949232448146
H         2.47523782118532   -0.85678359948413    8.46513040555677
C         2.85794623348973    4.69651809149862    1.22587756136904
H         2.83123570412984    5.62452331276455    1.78090072911097
C         3.81448930549430    4.50576195810948    0.24545880582422
H         4.52485206387071    5.28953075872090    0.03458510131960
C         3.84029824912161    3.30697271065312   -0.45424355733412
H         4.56460508744256    3.13907357826114   -1.23657561849901
C         2.92689153395472    2.33073335452226   -0.10819142462201
H         2.89062242995992    1.36134351032996   -0.58010748823310
C         2.00728343588382    2.59715294670277    0.89633314845216
C         1.04481811710231    1.54797481354641    1.36940337443580
C        -0.64931717340339    1.17734200287935    2.96459631433219
C        -0.67420789219706    0.91716527664785    4.33149049892042
H         0.11454218074379    1.30446741908533    4.95680080119608
C        -1.68677652812624    0.16400153011863    4.89718678232604
H        -1.66665779119817   -0.01536870318836    5.96105773365261
C        -2.70144719000328   -0.35237614648368    4.09987827040214
C        -2.66697197402049   -0.11682249946855    2.72484416279563
H        -3.45076644229978   -0.53412402620412    2.11303298844374
C        -1.65864199986119    0.63345961453339    2.16592941253543
H        -1.64127100873735    0.80066472494525    1.10151397205853
C        -3.81305221197254   -1.40504693192916    5.92244145927216
H        -2.93893528962499   -1.98446349007749    6.23528801149585
H        -4.70917412490791   -2.01051399724444    6.04950868313834
H        -3.89331026420420   -0.50700590439987    6.54439045262838

