37
CSD_code = EHOWUV | q = 0 | S = 0 | Stoichiometry = C8H18N8NiO2 | MND = 4
C         4.84021962719360    3.97779503448607    3.97972158724543
C         4.78204057681891    2.13683313003046    2.60978059658769
C         6.51812908381405    5.56578621164101    3.46902351404701
H         6.17445307503163    5.67174909071556    2.43412556633678
H         7.29342194715837    4.79243420560897    3.49125333121329
C         7.03995238425880    6.88541391276219    4.01170380887886
H         7.87448191994255    7.22707866180114    3.40613845717079
H         6.25360464888073    7.63514024798020    3.99029287923961
H         7.37228836082853    6.76173740990266    5.03886109184953
N         3.84409441717744    3.64058740481125    4.76105349907093
N         3.77127157225267    1.54577624357436    3.20127136063916
N         5.32136847774238    3.31127018782766    2.94601366450020
N         5.41982374237023    1.52111177722361    1.56535983357333
O         5.42710245910739    5.15566339211140    4.28269079978998
Ni        2.76923558838899    2.11245709138030    4.68235629284030
H         3.70078695696570    4.35647835782672    5.47331882343139
H         3.55271642651108    0.64743438377791    2.76978210257827
H         6.06733674572465    2.09441832271964    1.05295724047585
H         4.93735096506926    0.80458792938431    1.05002104081565
C         0.69822449582230    0.24713903406962    5.38496559425530
C         0.75642449362161    2.08808504090431    6.75492702462795
C        -0.97973780201978   -1.34081339739843    5.89561183558877
H        -0.63607907544355   -1.44683152670736    6.93051003773729
H        -1.75499392070236   -0.56742377886306    5.87340197262428
C        -1.50161718708499   -2.66039589957406    5.35287532869345
H        -2.33616746956815   -3.00204564040063    5.95842050701518
H        -0.71530440384141   -3.41015941351635    5.37426316198354
H        -1.83393905510013   -2.53666344678946    4.32572022685590
N         1.69436905826730    0.58433236889312    4.60365196613863
N         1.76720160659968    2.67913610884210    6.16344425012785
N         0.21707852408456    0.91366132247443    6.41867627152769
N         0.11865015380854    2.70380092991737    7.79935555188927
O         0.11131747601087   -0.93071108156235    5.08197260322939
H         1.83767041005749   -0.13155514271472    3.89138174750014
H         1.98576935606790    3.57746872038957    6.59494564603944
H        -0.52887014169263    2.13050004260051    8.31175487483638
H         0.60112450587577    3.42032276386995    8.31469590904547

