31
CSD_code = EHOWOP | q = 0 | S = 0 | Stoichiometry = C6H14N8NiO2 | MND = 4
C        -0.11391292218552    6.35710466323521    7.59507218277013
C         0.81447402684165    8.16281288841933    6.52505362189738
C        -1.30499814979769    4.87195329674864    6.20443737457495
H        -1.91853316841263    5.67192322647015    5.78576738249517
H        -1.89479032373651    3.96604635027225    6.33403549360969
H        -0.46440872437915    4.68562276685061    5.53276596059661
N         0.29030389094735    6.64714759507764    8.80666495878875
N         0.10969486511393    7.02914691925479    6.48143680482464
N         0.91442196150884    8.79195973896782    5.31274199557262
N         1.34854417096635    8.70596946507568    7.59301367985185
O        -0.84370955167934    5.22122369515169    7.49422811696070
Ni        1.31192197302329    8.10743475536382    9.37112592054589
H        -0.03361463205954    5.93678774989853    9.46317918028572
H         1.64388316690575    9.46993524413511    5.17034173676582
H         0.63420889539055    8.24728833180287    4.51547035072204
H         1.82505235375222    9.58145527649363    7.37570483985114
C         2.73789092733952    9.85768360693337   11.14714936012701
C         1.80936977543572    8.05206039678574   12.21719795685440
C         3.92921657986629   11.34268105131349   12.53773660821587
H         4.54271963596308   10.54265209717459   12.95634392607056
H         4.51907082435952   12.24854725817638   12.40812869228903
H         3.08868325569023   11.52905046748110   13.20946378608377
N         2.33357877754935    9.56770006667458    9.93557230607140
N         2.51423567282078    9.18567093333573   12.26079242400542
N         1.70932725049164    7.42297144345347   13.42953204471277
N         1.27530805000022    7.50889641235418   11.14923670282795
O         3.46782064202378   10.99347962860102   11.24796573339265
H         2.65753860562451   10.27803846205859    9.27905191451866
H         0.97981181271819    6.74505442192402   13.57193463177090
H         1.98956321390776    7.96764921595059   14.22679385504419
H         0.79872714400987    6.63345257456543   11.36656045790226

