69
CSD_code = EHUQIH | q = 0 | S = 0 | Stoichiometry = C33H29ClNOP2RhS | MND = 4
Rh        1.16151007380625    9.59740742299052    1.09509845080060
C         2.45915090778821    8.30132055497183    1.05997481086248
O         3.22114714903110    7.45256428076308    0.95407608482124
Cl        0.00841278255723    8.08974249601888   -0.12520072894390
S        -0.64729382771650   11.22141718786630    0.79313010943335
P        -0.46698969210436   11.05445858900654    2.74960956451074
N         0.98355009246191   11.77389525096139    3.31098614395471
P         2.24618902562418   11.13218727566509    2.31446988996753
C        -0.56605201335951    9.33103440545170    3.35349259581299
C         0.26048570676475    8.80372131226400    4.33997689205596
H         1.00289819150642    9.43067960242423    4.81062974278233
C         0.11069729182473    7.48201094441563    4.72035273178076
H         0.75958484188673    7.06935028760100    5.47914172570142
C        -0.86281064408268    6.69161999685245    4.13155717179162
H        -0.96546009412865    5.65745644115327    4.42402922986290
C        -1.70436019348508    7.22437421159868    3.16681230033045
H        -2.46247211865403    6.60946552237371    2.70721769552093
C        -1.56342205912031    8.54216080279850    2.77831561737890
H        -2.20760677954786    8.96567619191011    2.01795109152345
C        -1.89000502532151   11.86688104946875    3.53394213032854
C        -2.49665547928832   11.31021270607256    4.65274732392482
H        -2.07126941274634   10.43020733475246    5.11448076123913
C        -3.64096661555865   11.89029850681831    5.17035889188879
H        -4.11488544471883   11.45597833330195    6.03783806122823
C        -4.17902872679264   13.02008457318384    4.57608542401023
H        -5.07179061730772   13.47043412548684    4.98373322792038
C        -3.58519109718021   13.56386021229515    3.44738657165114
H        -4.01535731452553   14.43394128095868    2.97413436574724
C        -2.44963475073945   12.98031687320035    2.91753759211366
H        -1.99820683221169   13.36650661740585    2.01304914143499
C         1.19134191334152   12.76531431145020    4.37888100860744
H         2.28184560111964   12.82152396895847    4.49477967917591
C         0.70082219070876   14.15671868356832    3.98601858792723
H         1.29116840459153   14.53445062372683    3.15489631319519
H         0.82078037317487   14.83368757694362    4.82926197400975
H        -0.34467909467681   14.13790586737293    3.69029131217045
C         0.63743597643483   12.27143905515336    5.69582331286530
C         1.34200877863159   11.28404397068904    6.37903463064089
H         2.27977889914016   10.92563852476132    5.97629702615238
C         0.87268402326489   10.77404002843363    7.57511751883037
H         1.43075980232596   10.00295631796832    8.08526184632509
C        -0.30274527334132   11.26134940855777    8.12098505869735
H        -0.67189875235675   10.86713565406580    9.05586834093693
C        -0.98980763201229   12.26975659735910    7.46985270409304
H        -1.89611326530862   12.67193634365843    7.89784859597368
C        -0.52512062885897   12.77245971872314    6.26607527759253
H        -1.07600098787029   13.56369438164693    5.78284478076603
C         2.91594676928086   12.55253749351918    1.39785244135683
C         2.06588893055198   13.52954455739935    0.88752952427306
H         1.01013545400814   13.49298149535489    1.11916148378616
C         2.56322752576360   14.52277442919780    0.06450279052095
H         1.89970778669891   15.28265001256000   -0.32147827446375
C         3.90545505170011   14.53346950116301   -0.27792143519671
H         4.29284471482797   15.30901880640958   -0.92173502984691
C         4.74639086884017   13.53371192893526    0.18520567173337
H         5.78652103938844   13.52417310111510   -0.10573831662634
C         4.25452510332409   12.53979913480863    1.01003847974907
H         4.90253910745486   11.74408227685614    1.35304124719851
C         3.56015287500482   10.76578441167211    3.52624063982930
C         4.41845289205720   11.73385238487969    4.04312113767645
H         4.37566536506504   12.75130441257553    3.67813495917278
C         5.34696448742185   11.39093471128738    5.01011642344302
H         6.00832822232820   12.14638097264023    5.40831636530107
C         5.43210048983351   10.08472202114960    5.46480299830388
H         6.15903175202044    9.82328995351170    6.21917461328246
C         4.59225511948136    9.11387894114255    4.94309080865605
H         4.66473900615615    8.09248289977394    5.28571991924846
C         3.66194308852906    9.45353353978891    3.97729152596966
H         3.00465669700609    8.70297759135693    3.55537944710235

