63
CSD_code = EHURAB | q = 0 | S = 0 | Stoichiometry = C22H34CoF2OP3 | MND = 5
C         0.21787702399046    6.61821451949807   12.58728961423235
C         0.52233897177972    7.64711438941987   13.47641323541603
H         1.23558686934391    8.41306212933253   13.21410280244868
C        -0.08885982837593    7.70988071922519   14.70948694177540
C        -1.03499515458152    6.78475524331001   15.13112564520823
H        -1.50636577728188    6.89699304451445   16.09508196933840
C        -1.34444315325509    5.74559147845830   14.28491751288515
H        -2.09527593910518    5.02348850255304   14.57222085829877
C        -0.71123843338507    5.63815763597904   13.04109610626190
C        -0.93833312742905    4.62588433006686   12.04770465825243
C        -1.71458527574760    3.40157026202364   12.27956871454117
C        -1.61915196465246    2.68590032988081   13.47701005353028
H        -0.94935050563216    3.04391231524213   14.24373597693448
C        -2.33282894992260    1.52014601638593   13.67264563491515
H        -2.23764149454467    0.98545889135807   14.60603836118520
C        -3.16236102624632    1.02814231097732   12.67673506036332
H        -3.72165231206285    0.11825910287879   12.83119602966943
C        -3.26690342987108    1.70621608355159   11.47366592775754
H        -3.90183487285309    1.34751041322974   10.67826327409501
C        -2.54410470683332    2.86700953345878   11.28965535109004
C         2.22375694387819    5.88113227487360    7.37450023409843
H         2.02433158824578    6.90408154676570    7.06679469409496
H         2.07138079369447    5.21578539981145    6.52550440200500
H         3.26037478055310    5.81916830338663    7.69567926428605
C        -0.47861676381110    5.27881695203263    7.84576822651317
H        -1.22184973303402    4.84693512305985    8.51130529683650
H        -0.35890893009158    4.64581524919010    6.96652919248010
H        -0.81503061026968    6.26681771942057    7.53718921092580
C         1.50923753583985    3.61493948875445    8.85021666776126
H         0.78895440519146    3.13728734534004    9.50942480822221
H         2.50829749358529    3.47240636549631    9.25789748836221
H         1.45449154078983    3.16550228199831    7.85883884501445
C         4.35262711633432    5.88386752473109   10.46694363295802
H         4.49817744716415    6.81401312475247    9.92039819463031
H         4.15080281669574    5.08777572654879    9.75438291938076
H         5.25657420365682    5.64644474152597   11.02681006459638
C         0.58957163468809    9.03809107512557    8.50054675578515
H         1.66319530945454    9.20355518264600    8.42846706085402
H         0.06518483468564    9.97435096054289    8.31220065955730
H         0.29686670746796    8.30564086623176    7.75242563459151
C        -1.64263077377215    8.42374169225915   10.09365829261198
H        -2.03228538669216    8.26398308168438   11.09774262985609
H        -1.98624379448220    7.60725118780825    9.46199202582175
H        -2.00400498458236    9.37517348464507    9.70349230858991
C         0.44236620830419    9.96327223521550   11.11138758189522
H         1.50708576254601   10.14378706470812   11.24616463430988
H        -0.03232554363928    9.88905083457706   12.08603163033695
H         0.00281474093211   10.79429579698598   10.56100247299918
C         3.03067566939493    4.48620505243854   12.51569848893895
H         2.36025819167298    4.53695950471952   13.37204598885200
H         4.04985580786367    4.30177720787616   12.85478014833171
H         2.70139630146341    3.67315808734766   11.87186626465991
C         3.71206967168992    7.16695060251665   12.84574172485639
H         3.11250566009094    7.18232291686677   13.75196550631631
H         3.78441157428520    8.17817932291971   12.45038899002326
H         4.71003388822628    6.79715442876102   13.07847461822013
Co        0.82849137801384    6.31567171706814   10.80913657231160
F         0.23471423322664    8.73471029265792   15.54771959797950
F        -2.67940559369547    3.51519325518352   10.11092640870109
O        -0.39239335595511    4.82620347446916   10.92637262920622
P         1.10350358500398    5.40447691737018    8.76472447431349
P         2.91015092937912    6.07595968493756   11.60082153098539
P         0.19175980267215    8.39322765343762   10.18238849873186

