81
CSD_code = EHUVUZ | q = 1 | S = 0 | Stoichiometry = C27H48FeN2P3(1+) | MND = 6
Fe       -0.10539333370618    2.41361604493464    3.71377797539488
P         0.95749210667964    1.09998527862179    2.33391845002243
P         1.13079801040728    4.19482887016681    3.19455479985372
P        -1.67545637122561    3.56438186092723    4.66652276788952
N        -1.03142813269031    0.86181947558752    4.24088383896472
N         1.06880270476940    0.40584134344394    7.13948283763285
C        -1.46975558281117    2.39161792795659    2.27247639545208
C        -1.73352113076374    3.22220588274019    1.18751387367318
H        -1.10070380913025    4.07631863379693    1.04789436279324
C        -2.77208884981792    3.01011959521944    0.28907065115563
C        -3.60658266555235    1.90344132264253    0.48261607607605
H        -4.42126331113165    1.70891040135301   -0.19705284187253
C        -3.40368956325989    1.05407768943650    1.54132323671306
H        -4.05101500873624    0.20162996847726    1.69677205940404
C        -2.34926940871496    1.29532336266522    2.42566586610462
C        -2.04569640356083    0.47738307319779    3.54619039883099
H        -2.61988516162223   -0.41112314243358    3.79748241584127
C        -0.59702881308760    0.09928228931943    5.37665254025638
H        -1.42551801245084   -0.05055468478466    6.08426686388441
H        -0.25791794384223   -0.89837766424868    5.05834015225574
C         0.51816667116511    0.86581679035184    6.00139046913022
C         2.04732638592785    1.09569271201391    7.75410422043753
H         2.46104893138039    0.68098876583710    8.65835244847726
C         2.47155141044984    2.28950647724547    7.22012532263240
H         3.24279603947218    2.84814984489350    7.72678268221387
C         1.90948130889625    2.74836632178702    6.04237780879097
H         2.26016653574950    3.68698740871477    5.65309135616930
C         0.90752500609213    2.04634767117761    5.34776976027521
C        -3.03704544610949    3.93109922604200   -0.89070836661536
C        -2.91840222060915    3.12088632102134   -2.18979608390925
H        -1.92166264154366    2.69232947606660   -2.27955585130741
H        -3.09361687605483    3.76523817580153   -3.04801651641831
H        -3.64157780796347    2.31100152213043   -2.22210072959964
C        -2.05525175637940    5.10359382534749   -0.97069997648496
H        -2.11644844299533    5.72968666052686   -0.08311434754573
H        -2.30385553691361    5.72115461734937   -1.83071585053647
H        -1.03238167074045    4.75542333283096   -1.09664906948764
C        -4.45462696640115    4.50805134513880   -0.76532104215084
H        -5.20693839020050    3.72458752480782   -0.76889759535881
H        -4.65919405803989    5.17632397934721   -1.59838211256237
H        -4.55338289597808    5.07279670996150    0.16018170836014
C         0.61721040630348   -0.83806874690288    7.72479643303801
H        -0.43151301752752   -0.76667210925694    8.01773134454086
H         1.20870151052167   -1.06649541588467    8.60872091830247
H         0.72288127394964   -1.65781335084952    7.01302804681188
C         0.18103532344417   -0.48634973529462    1.81651793586730
H        -0.73860886857366   -0.28964507389268    1.27036771145149
H        -0.03966469334143   -1.12455311275539    2.66947855460457
H         0.87921224690605   -1.00861658350314    1.16218959786295
C         2.57193659395654    0.39603813846732    2.87467498774652
H         2.40902334164027   -0.18175804867198    3.78396658616323
H         3.28063652006885    1.18750206752379    3.09675195596468
H         2.98453547280455   -0.25302022567338    2.10307963875748
C         1.37135165257939    1.68737299333228    0.64953626265472
H         1.82059637061316    0.87760345081301    0.07488466212657
H         2.06144209698009    2.52471281118462    0.68359024030466
H         0.44548642338927    2.00369374592618    0.17110274491793
C         2.95575695499724    3.91796310755918    3.11511443009139
H         3.21626632875338    3.50230846789881    2.14455615382805
H         3.28477840865974    3.22741434844698    3.88464866256616
H         3.47543558373590    4.86792151912090    3.23753773862023
C         1.01350669704307    5.15590766488934    1.62264347844442
H         0.11623595839788    5.77116378967845    1.62321021607552
H         0.99565698158639    4.49930386712983    0.75839188081710
H         1.88236744191325    5.81074737504018    1.55209469257301
C         1.12506156188976    5.68968140555178    4.28262697524551
H         1.78679978897645    6.44043719482748    3.85029755310421
H         1.46390987922026    5.46628678805091    5.28963957268832
H         0.12086661901454    6.10148719308001    4.34267899240995
C        -2.39399018198207    5.00242372167714    3.78520823249682
H        -3.11410921987879    4.62174621479580    3.06252623132274
H        -1.62656949944268    5.54638942076216    3.24272271999627
H        -2.89524853180210    5.66775928726289    4.48779996557170
C        -1.31488579519664    4.25734866612895    6.33550143979911
H        -2.15527731794013    4.84819347369544    6.69807542079561
H        -0.41875077383695    4.86791615818647    6.32092123775273
H        -1.14422255652281    3.42116374775506    7.01329011335905
C        -3.26035897812193    2.75445962831615    5.12284239133502
H        -3.90060045879448    3.50583133811380    5.58617328735511
H        -3.09160559869631    1.94775389916092    5.83430579782153
H        -3.75744284459378    2.35930468087258    4.24020423996675

