80
CSD_code = EHUWAG | q = 0 | S = 0 | Stoichiometry = C27H47FeN2P3 | MND = 6
Fe        1.73958165355296    6.58748320842177    7.83471994153969
P         2.24682756546396    5.08048596155512    9.27156761150750
P         3.49481088552616    7.84249777252100    8.18254006039576
P         1.13320384385574    7.61222401925213    6.04231992537529
N         0.10692047540389    5.62595058015160    7.59457022766813
N        -1.74979528199908    7.76399058713239    9.78964424595992
C         2.40357892751246    5.19350756541665    6.57189323307034
C         3.64265478945017    4.91870442232203    6.01475539869894
H         4.46687947124909    5.55564563235663    6.28072922570190
C         3.89407375514159    3.86116863616605    5.13874808689396
C         2.83988862592239    3.02081942259697    4.80050903500082
H         2.97969561861547    2.18992868071251    4.12679833883206
C         1.58507349482908    3.23657817307970    5.33342029135064
H         0.76455155260839    2.57682963808110    5.07666062984803
C         1.36761370597075    4.29967311571349    6.20498009557889
C         0.11097151766756    4.59530831101446    6.80588780381562
H        -0.78805771740973    4.01178807782751    6.61870887651351
C        -0.98700283008062    6.08135187239707    8.23848139025436
H        -1.93290393000531    5.57139075718545    8.10202895037435
C        -0.75633373793079    7.16794876393971    9.04766885005453
C        -1.45492974270577    8.79156508429860   10.63680869252119
H        -2.28328507981369    9.21077948996667   11.18885782399294
C        -0.18358168560136    9.23393772637445   10.75924986516608
H         0.04263817754558   10.03972354021963   11.44150170308320
C         0.84148590725051    8.64613713591811    9.97596381295070
H         1.83452042575304    9.04012585426631   10.11484543170418
C         0.61066669093229    7.63285631901076    9.08492206746141
C         5.30594817579608    3.66999209381766    4.60153829375902
C         5.73639041267868    4.93444701025271    3.84404456392446
H         5.74409827752651    5.80268360001492    4.49741124188474
H         5.04966181276170    5.13135095035414    3.02259606145158
H         6.73714970326122    4.80807128555166    3.43415493349634
C         6.26175383707699    3.42228437119808    5.77760914136326
H         6.25956409029930    4.25982033280131    6.47000774379034
H         7.27886310599333    3.27957717577042    5.41622729903047
H         5.96126845551411    2.52952281280486    6.32326826643491
C         5.42158486050102    2.48314555611005    3.64066534575570
H         6.44833799362197    2.39777278140342    3.28786986732764
H         4.77800661646153    2.61816031007872    2.77407507022554
H         5.15836295945441    1.55129392875659    4.13631250603048
C        -3.10396794208957    7.28700291555172    9.68242621874998
H        -3.76172873754016    7.90573870815514   10.29096534514429
H        -3.17820781230963    6.25134604819611   10.02708527408208
H        -3.44260107469009    7.32922865555729    8.64366102412200
C         1.29986807256471    3.50452853426156    9.33808265858034
H         1.70991339905282    2.88328150951598   10.13558855556153
H         1.38300031877205    2.97793170097051    8.39013120900328
H         0.25076826695460    3.71060808674905    9.54482097757952
C         2.06350801661616    5.48569130200977   11.06226154387231
H         1.01086208505725    5.71104084612393   11.23083821447419
H         2.63899310706158    6.36896502452561   11.31748557653304
H         2.36589463296773    4.64997474060650   11.69370962219525
C         3.92238361644351    4.32183156889051    9.22664755085162
H         4.67991135723887    5.08106811136659    9.05413509503086
H         3.94254506345820    3.63005020027466    8.38605704541803
H         4.13471974453923    3.78772416550121   10.15294658564319
C         4.30229258049137    7.90666453305672    9.84793308233044
H         4.65148134713215    6.91507793840438   10.12531504761463
H         3.60267525450296    8.24811352098316   10.60433936069413
H         5.15337220605232    8.58788620275552    9.81742152442546
C         5.10048510066982    7.72147700153364    7.26033858268444
H         5.71761267564334    8.59093461362751    7.48898386750446
H         4.92341390865510    7.68285397994906    6.18921124195328
H         5.63499373215928    6.82418030725312    7.56616990098132
C         3.30072194058342    9.66559517668203    7.93210617171613
H         4.12059724965845   10.19991736695104    8.41250506246254
H         2.35743831786929   10.00243117933268    8.34842332230264
H         3.31012142680307    9.88830485230755    6.86744148029167
C         2.39111535141878    8.00801927254750    4.76151187351475
H         2.85541611636101    7.06734075612904    4.46751532935822
H         3.15637508502222    8.66800370076547    5.15908999731214
H         1.92451343267044    8.47648569229461    3.89478046207598
C         0.25556706800403    9.22874473138024    6.19232866411896
H         0.85819230098224    9.94148487784074    6.74585404655115
H        -0.65934010642638    9.04945758945995    6.75616944099192
H         0.00834751655952    9.63735048027315    5.21240486377461
C        -0.08103343443746    6.83753526950432    4.89421675932750
H        -0.25541311841740    7.51648004628238    4.05854217137466
H        -1.02357879838636    6.65388974448400    5.40639682818586
H         0.31413335266044    5.89623649101729    4.51889647182424

