73
CSD_code = EHUXEM | q = 0 | S = 0 | Stoichiometry = C30H38O2P2Pd | MND = 6
Pd       12.03167859664206    4.06296365770812    5.12424051424927
P        11.76252725148719    5.02036030086849    3.02794223352248
P        12.17577258707317    5.08156818384421    7.20392187366108
O        13.79759997583721    2.05302584889864    2.99948994092946
O        10.53320634456445    1.88121069113879    7.28434482813903
C        13.07855194189632    2.12635875116740    3.99710285949933
C        11.58296621139950    2.20761625886419    3.87075408467145
C        10.74161556271761    1.94630607756861    4.92375081047776
H         9.67679993852333    1.78885228516462    4.77946889268378
C        11.23818606575997    2.02850373547319    6.28487382573605
C        12.71132378467989    2.30057761133811    6.40826114584547
C        13.58009739594283    2.13056299460783    5.35887215737843
H        14.65612907407566    2.11175462495587    5.50461684337568
C        11.13316479232904    2.39415659199392    2.47681744697429
C        11.30645818370338    3.65716591762259    1.89365942806215
C        11.06281064246063    3.82230812982889    0.53506100469612
H        11.23944563185393    4.77683616901577    0.06194007919943
C        10.60710501466305    2.75875574746756   -0.22346487574496
H        10.41972841190060    2.89352591091418   -1.27884351150564
C        10.38876767888006    1.52455576189264    0.36691615297806
H        10.02304501423340    0.69943312482511   -0.22619698767954
C        10.66544691025950    1.33689893347096    1.70918764121460
H        10.53783451199511    0.36627157839581    2.16595981790002
C        13.13252883641760    2.56600125260686    7.79833211596175
C        12.79986454611764    3.80644279167986    8.36039961813380
C        13.01954242468872    4.02407067889189    9.71568421989309
H        12.72285084603455    4.95632292782679   10.17290240389285
C        13.60607210698106    3.03994772481364   10.49135331239203
H        13.77408087662590    3.21521384745698   11.54404184217090
C        13.97982077828665    1.83368913348284    9.92150691786937
H        14.44696294004860    1.07182200778362   10.52789220753914
C        13.73015580877590    1.58979102836122    8.58298154885318
H        13.98034779013322    0.63566529123614    8.14242522253143
C        13.01466635127579    6.01592843584797    2.09686740819895
H        12.65779115280543    6.22557222671476    1.08322832996055
C        14.27417748421469    5.15517804277335    2.03896750407305
H        14.60888513409272    4.92034273127546    3.05216788606155
H        15.07805836478109    5.67363973074859    1.51952900204268
H        14.08037375123804    4.20954155871156    1.53410829832949
C        13.26971184376103    7.31820113339064    2.84940909209378
H        12.41973226136547    7.99373490948949    2.77402793182337
H        14.14661743301836    7.82367128444421    2.44892698133422
H        13.44679129049062    7.10022880511862    3.90445420995721
C        10.18880629426322    6.02426326669231    3.09343199656115
H        10.43954039351364    6.88318418046332    3.73210448688694
C         9.16013120622238    5.15771119306237    3.82217917727928
H         8.84183894914969    4.33278487434333    3.18409055391843
H         8.28254561028517    5.74129359916720    4.09568676345896
H         9.60338828114578    4.73752925953691    4.74267300371954
C         9.64835739855063    6.52937955253222    1.76268681742013
H        10.39151439322758    7.11831182306053    1.22929544718697
H         8.77967202477558    7.16251237142314    1.93905994900237
H         9.33723276359553    5.69860657542933    1.13363489828839
C        13.60980136909040    6.27537347672994    7.11955689165168
H        13.25276720394609    7.08498123241875    6.46718996462276
C        14.74032799751496    5.53405235283194    6.40364434378283
H        15.16027017080500    4.76685714791299    7.05483013615510
H        15.53701982870740    6.21944914399316    6.11897095354825
H        14.35430500847900    5.04579007318711    5.49099290119938
C        14.08120195473291    6.86672999613889    8.44098881893449
H        13.26909168275306    7.36531639515977    8.96588777102903
H        14.86264302323284    7.60194779245414    8.25288844030423
H        14.49488696767415    6.09255593455155    9.08302993318995
C        10.80663939084127    5.92594705365593    8.11955792300256
H        11.13291616661451    6.19615825372948    9.12916443128069
C         9.66632827279230    4.91357404271093    8.19312528868524
H         9.36668487387057    4.61964754704501    7.18434885295701
H         8.80183818051376    5.33525870610278    8.70271730439311
H         9.97725176078273    4.00956990682883    8.71537373479525
C        10.38937180278634    7.17254686519818    7.34552884917580
H        11.14753412398879    7.95091925160013    7.40730888628269
H         9.45590607093178    7.57042302274032    7.73946736703349
H        10.24089329114732    6.91585067969002    6.29480185484997

