76
CSD_code = EHUXOW | q = 1 | S = 0 | Stoichiometry = C30H40ClO2P2Pd(1+) | MND = 5
Pd        3.85827473947895    7.05216328174791   12.53775833249115
Cl        5.28177461210121    5.92658971092206   11.25391431093801
P         2.66571560228433    4.99200793104135   12.69047247205136
P         5.38636704606684    8.82251120088966   12.08468446438273
O         2.50820200098867    9.62800779263210   12.61020061896792
H         1.67992618473941    9.36750457487598   12.18200848763072
O         3.32581959357230    6.51682416496811   17.09957768363565
H         4.00270526728125    6.90040160463160   17.67083468998864
C         2.80967876145166    8.76008634035215   13.62242859381857
C         3.78247680859017    9.14818761412529   14.58057398470848
C         3.92854667329380    8.40970264381852   15.73672621773162
H         4.66554224376024    8.71869124874003   16.46563516757553
C         3.16376245260103    7.25886115355387   15.98069646419942
C         2.22749701412540    6.85338386987931   15.03588389363731
C         2.05006823289029    7.61615445880471   13.86329302255510
H         1.16492515157568    7.42402432929686   13.25953302268305
C         4.57484408600658   10.34485210492451   14.26110982344759
C         4.60688969264307   11.44358347042055   15.10845710823965
H         4.08369116993319   11.40134397851831   16.05212672072718
C         5.28080349135098   12.59095701738919   14.72904809267680
H         5.30051445273548   13.44550533631889   15.38714475422767
C         5.91684430837140   12.64502300974405   13.49997289893031
H         6.43074181661849   13.54397971240698   13.19632449443306
C         5.91031312031566   11.54391602316643   12.66041017603239
H         6.43305937074153   11.60021195385798   11.71782388799349
C         5.24527309600424   10.38220044206426   13.03235659007419
C         1.43025689463839    5.62359989177401   15.12670613879244
C         1.41311684329157    4.77267203712345   14.00993146670715
C         0.56222831676504    3.67202257696332   14.01572857166375
H         0.51452462670203    3.01133457165308   13.16369084254893
C        -0.24044467844087    3.41060669210851   15.11279710160017
H        -0.90317616928511    2.55907802759316   15.09735952653840
C        -0.18053708754513    4.22540592124043   16.23153003357250
H        -0.79004173631703    4.00572824439044   17.09397128610549
C         0.64812272496438    5.33263303477420   16.23649642929415
H         0.68378337826124    5.98789434656833   17.09232542672859
C         5.37873612585601    9.31787274113942   10.28749773863082
H         5.57937134769706   10.39390994621596   10.24676730201885
C         3.95703206198759    9.06611291520306    9.77821585344637
H         3.89911807475180    9.25194893326626    8.70794708416685
H         3.25118393073203    9.72729628406290   10.27986261438594
H         3.67673142527229    8.01768219687903    9.95760981031794
C         6.40326395728066    8.58299664396381    9.42899397867628
H         6.22653467579950    7.51096131464861    9.44006854943351
H         7.42037050225771    8.77243806537600    9.76080424955803
H         6.31718928336323    8.92944053252153    8.40074788368980
C         7.09519892587368    8.26669361337585   12.58525361856559
H         7.35768083318062    7.46560843868393   11.88581592310253
C         6.96517994799291    7.67776966855268   13.99080884417297
H         7.87547929197725    7.15082680107281   14.26784909005367
H         6.12714927882782    6.96451901433325   14.03406551940013
H         6.79019777533549    8.46843193078125   14.72004475088088
C         8.16801284626109    9.34690245594866   12.54354365116033
H         7.98086404002917   10.11860911121669   13.28723491430279
H         8.23261613211527    9.81637094466571   11.56513021728725
H         9.13387638739498    8.89551258455998   12.76256534813522
C         1.75861728973626    4.62919628114736   11.10736293248000
H         0.98419918863772    3.88275777480037   11.31350502912597
C         1.09653180312417    5.94667684633237   10.69558304767495
H         1.85366025609131    6.74810542932254   10.65861106272565
H         0.30811875282837    6.22243374921576   11.39706855887515
H         0.65129902380650    5.85765636522649    9.70702476516964
C         2.67658990658170    4.11472291382594   10.00506201284123
H         2.09422559863587    3.92801534846279    9.10493149131268
H         3.16227426447361    3.18538612978843   10.29189473794144
H         3.44557837483141    4.84708334802377    9.76846537596703
C         3.86329059190541    3.62649744376916   13.08880977468679
H         4.57838241034969    3.61954831643802   12.25792841178794
C         4.58376933575102    4.07755619337358   14.36091866163733
H         3.91047514820322    4.05388443378093   15.21776160376729
H         4.95853031629892    5.10463874904246   14.23966704116041
H         5.43084107435260    3.42887210795382   14.57060700615713
C         3.26014134221914    2.23791186759098   13.24450033222504
H         4.06430496269368    1.51660154585977   13.37661406234401
H         2.69101787712959    1.94681086452323   12.36418592368282
H         2.61507553578341    2.18328984177964   14.11853842972578

