34
CSD_code = EHUYUB | q = 0 | S = 0 | Stoichiometry = C15H10MoN4O4 | MND = 6
Mo        7.76803299934748    6.34779216828849    8.41608644985586
O         4.99268770623723    7.10884309755708    7.25268914858660
O        10.47770611739442    5.41667458886113    9.60972798654398
O         7.20649771888367    3.41583319542103    7.62616801593725
O         6.43068712088962    5.81354234239684   11.14819137287817
N         8.76774088163320    7.18865193500756    6.70528818932298
N         8.37302887679155    8.42447779902177    8.48152382202479
N         7.70812325840850    9.21130946189386   10.48219923043926
N         7.99385703725002   11.37961561491789   11.23248923934955
C         6.03002247731448    6.86528336707825    7.66553677173203
C         9.49975341914613    5.79716167525054    9.15775523501384
C         7.40660274856742    4.49976895638728    7.93538632211351
C         6.92307783009727    5.98096025975061   10.11990180212397
C         9.22038772965256    6.92950341697563    5.49133863732051
C         9.86004716674858    7.89562407094897    4.72471572061896
C        10.02933157813609    9.16809656930936    5.24886049175642
C         9.55590766316959    9.44695630535984    6.52431278431637
C         8.92691207574315    8.42069913343444    7.22008854639341
C         8.29739481204817    9.41553978348023    9.29584055667937
C         7.53022493860060   10.15806439731558   11.47327436402544
C         6.88447327866252    9.80458698627553   12.66107168689538
C         6.72509838615668   10.78060223698431   13.62468078104920
C         7.20824006511064   12.06031063351231   13.37826155891594
C         7.83311357745530   12.30131792613792   12.16650687156664
H         7.36558410295756    8.26043514770585   10.63017066951838
H         9.06836970548071    5.92272542397884    5.12165655048187
H        10.21799448869047    7.65276267605283    3.73738358724494
H        10.52335384026586    9.93767194833157    4.67584456302905
H         9.67448751587463   10.42723071038306    6.95886274857132
H         8.66879926416404   10.42292250460137    9.11360021907696
H         6.52592235901651    8.79784602793042   12.80751982416838
H         6.23112794672624   10.55029423932780   14.55664393032017
H         7.10108477041658   12.84635834904943   14.10769933313627
H         8.22812654296610   13.27753705107368   11.92002298899444

