39
CSD_code = EHUYOV | q = 0 | S = 0 | Stoichiometry = C16H14BrN4O3Re | MND = 6
Re        3.12622801507883    3.90667549058210    8.64006574959860
Br        2.45493358949450    3.15451364703003   10.97617700680427
N         4.28976905884836    2.04215381517296    8.63531848322848
N         5.19160142352354    3.85070307978580    9.54929108181961
N         5.66710909056340    5.85012187646726   10.52212296756163
H         4.85323641140995    6.23354961265447   10.04219248885203
N         5.76792913852201    7.97952262494214   11.26820750912817
C         1.39490294665374    3.39265535445506    7.91662331629227
C         2.44742700166518    5.69311771745857    9.00968001430816
C         3.84541983545360    4.39945065734490    6.90870784802785
C         5.35209672460900    2.49336465300024    9.32003845442722
C         6.39716022391792    1.66043854916653    9.69606153403671
H         7.25418962346322    2.03623398078858   10.23089079947684
C         6.29718805953419    0.31988888518322    9.36028012142611
H         7.08401341202075   -0.36439086952678    9.63946028104424
C         5.18541159200226   -0.13715467554138    8.67375699839177
H         5.08778860377829   -1.17939328561159    8.41616041222172
C         4.18064220231880    0.75909365147459    8.31614049608037
C         2.94611332393423    0.33688304584477    7.59491900907870
H         2.70851742706548    1.05270040395480    6.80761628107283
H         2.10720632630103    0.32756746863462    8.29267339115191
H         3.05767956496378   -0.65617943155255    7.16964794444330
C         5.93325777034401    4.56015236083483   10.32968546190161
H         6.78438587464362    4.14270690218229   10.86444528038136
C         6.31360647366481    6.77186384319980   11.33603994618651
C         6.26868086716181    8.96678142440528   11.99175218940231
C         5.59922641581025   10.29607988016413   11.87267248747019
H         4.76990127375764   10.22543456968795   11.17584699697743
H         6.30618609774695   11.04468664732101   11.51949709813458
H         5.22672742768607   10.61646476414426   12.84392777320922
C         7.36968811675295    8.77220209118999   12.82640231822364
H         7.76205451651882    9.59160114485413   13.40735163174967
C         7.94068302556188    7.51429986273832   12.89421334085086
H         8.79235907415084    7.33265626088291   13.53284463907740
C         7.41257092844225    6.47948366499003   12.13838288407100
H         7.84260592620953    5.49267224938040   12.18681790225258
O         0.38165480945015    3.00982089571375    7.54085701014264
O         2.09643964699090    6.74388239971967    9.31125572019868
O         4.27980815996771    4.68739478686483    5.88567513133239

