182
CSD_code = EJADEY | q = 0 | S = 0 | Stoichiometry = C63H88CoN14O14PSe | MND = 6
C         5.53477336204681    4.31602645022096   17.39446605785377
C         7.04662194344750    4.61563508608702   17.67347420749860
C         7.65351822427504    3.18946486696055   17.63944197463634
H         8.49659872047524    3.15747490334245   18.32919954082590
C         6.49731551931580    2.38267694077059   18.17554676057406
C         6.66224396924042    1.13390664967427   18.83708018775215
C         5.56731849864654    0.46492122281324   19.32827007764073
C         5.56967847133571   -0.72111472364057   20.29294581298084
C         4.19265550147026   -1.33601635265370   19.96615191634504
H         3.75393909369146   -1.85441894915680   20.82141896793977
C         3.43472590360473   -0.08842169926904   19.60809826937866
C         2.08802990692319    0.04238370713914   19.81752093216955
H         1.56671266362007   -0.79256167320673   20.25479075980032
C         1.33457808782647    1.16252479913805   19.50116318559500
C        -0.14645717063348    1.23525271714540   19.77254472718566
C        -0.53757922739014    2.46657557605580   18.93433102766431
H        -1.26846690326541    3.05834222775580   19.48511172170280
C         0.78752429058432    3.17823120841109   18.78741103900109
C         0.90560983953194    4.50418134689074   18.46151112425818
C         2.19226384544080    5.07138978217897   18.21189588452900
C         2.50699463278277    6.55350479092991   18.02416710822870
C         3.95366611971765    6.47912867467597   17.46469910983614
H         3.88336254020296    6.34192034127617   16.38338992119851
C         4.47146082482099    5.18732640985770   18.09643296316356
H         4.80450456720420    5.40477304280347   19.11925121045373
C         5.20272701093143    4.23840471707677   15.89903821475988
H         5.64843810748440    3.35918160097109   15.44534913352498
H         5.55695307521432    5.12508799327220   15.38321864347602
H         4.12889017398640    4.16731847529013   15.74716881341566
C         7.72950909392761    5.58760791010089   16.72084294664986
H         7.84575990563245    5.17010499925612   15.72667397660637
H         8.71208469457232    5.83006877227433   17.12093556106975
H         7.16574001240704    6.51064868956518   16.62448534941048
C         7.21381923400046    5.11361672681778   19.13176076210698
H         6.97913263234873    6.17738668954438   19.18746856834485
H         6.54647823183199    4.55986799024614   19.79342407636448
C         8.62748089298465    4.94151233930933   19.67057843748654
C         8.14299799270525    2.61885577536299   16.29689178228371
H         7.59237829841454    3.03937582154024   15.45901551909401
H         7.95821817980643    1.54309913084649   16.27878520726004
C         9.63559684917471    2.83428684849513   16.05336871701456
H         9.86525882714189    3.88789145099812   15.90015605499648
H        10.21621804600061    2.49230156672339   16.91546017474379
C        10.09586019368074    2.01759388971669   14.85452358941041
C         8.05903463040632    0.59272489237113   19.00706604243328
H         8.78343243386204    1.20404579738464   18.48673937186840
H         8.13973909529265   -0.41171252644067   18.60067063347548
H         8.34189903527945    0.56797014994749   20.05670602406590
C         6.68241180754667   -1.76330291519559   20.26856040980833
H         6.35697654269093   -2.62487371547782   20.85109732211264
H         7.59667290499941   -1.38874221727107   20.71603832113631
H         6.89770273982859   -2.10264383835837   19.26043524956726
C         5.48311437460634   -0.10570778626810   21.72108914742871
H         4.55313539552462    0.46358238073710   21.79866446423297
H         5.46671794796850   -0.91266278229449   22.45461081585407
C         6.60253261653883    0.86509915053580   22.02227311111404
C         4.24162777724771   -2.29582256339542   18.76223688431346
H         4.76645834453813   -3.20230509839946   19.06809239317675
H         4.81229124820155   -1.82410154576043   17.95851840947004
C         2.85223687598505   -2.68852100499775   18.23035173390243
H         2.88080113273991   -3.71909693511043   17.87169771445636
H         2.10800377759984   -2.62599779491089   19.02210096768767
C         2.40869201908296   -1.80670440663475   17.06983771280454
C        -0.33495067997579    1.58128760884449   21.25993200784352
H        -1.39497238545917    1.68786129102450   21.47697503690593
H         0.16544915579858    2.51691344315946   21.50374494476481
H         0.07418116045042    0.79585649451486   21.89217953758651
C        -0.87823428968454   -0.06385696510745   19.45067925407822
H        -1.95049828517335    0.10530631153727   19.45393373901865
H        -0.66343784526959   -0.81296056249169   20.20961570422652
H        -0.57220774026419   -0.45764726402990   18.48562630752370
C        -1.08983565946657    2.19355497459271   17.51798705458292
H        -0.77303302705518    3.00226870164040   16.85690109651582
H        -0.66447707797462    1.27090041357357   17.12307049861841
C        -2.62015638336122    2.13737872565667   17.45502270396979
H        -2.92035781104445    1.90459042595655   16.43331742772875
H        -3.01099326886256    1.37076283609217   18.12176632342882
C        -3.20690697857169    3.47553814086959   17.87607550073748
C        -0.32112218723682    5.36679385654493   18.41783674447981
H        -0.58977537570625    5.63948395767841   17.39706233932616
H        -0.16151848300068    6.27811358583110   18.98556899990053
H        -1.17171356828556    4.86683991290783   18.86197583855619
C         2.44975455162745    7.19080467221659   19.42400993919565
H         2.47757227112248    8.27571883808910   19.35373963406050
H         3.27143883264580    6.84803751296354   20.04888670521107
H         1.53433080758694    6.91005533627356   19.93589446898897
C         4.79966585838555    7.72685706131175   17.70088655946384
H         4.56867428809246    8.21048342806177   18.64763760506457
H         5.85634961230919    7.45574785264294   17.72144968952824
C         4.63526994141474    8.71194395997162   16.54921029848122
C         1.61321680141110    7.34198254295050   17.05748852139898
H         0.64344209651059    7.52748247927974   17.51301370871306
H         2.08014307662667    8.31679676683349   16.90030516654203
C         1.41566176813745    6.66681907159982   15.69023012400176
H         1.42932412382503    5.58201835694000   15.80774477595889
H         2.21082422585192    6.95927910531192   15.00600275867081
C         0.05870615827499    7.07590976491037   15.13602116388173
C        -1.09700755980738    8.59061255886744   13.61510264431749
H        -0.92190927548595    9.62962734574739   13.32705141095593
H        -1.92571286254877    8.53268223353362   14.32385010563366
C        -1.42598022144178    7.75421550411749   12.36894186927909
H        -1.74712337585024    6.75843929717722   12.69434503375702
C        -2.52960111167640    8.38775897444369   11.53442153618294
H        -2.73586105784613    7.73873032780537   10.68799902519195
H        -2.20305951651981    9.35567808835213   11.16125568397434
H        -3.43266031625170    8.51031924910349   12.12772625461384
C         1.20978638432671    2.13559840406722   13.71229016972266
H         1.14400628653040    1.27995677695267   13.02346506685550
C         1.71909101559603    3.39388542758931   12.97888255604250
H         2.28166590545916    3.13212736153779   12.07367661906581
C         0.40589822507001    4.12147228340803   12.65763335245657
H         0.01215579587622    3.73572681669417   11.71109461482273
C        -0.51031970770766    3.70446323424391   13.81628927531039
H        -0.37895987046754    4.40890521269558   14.64942899284418
C        -2.00646438335559    3.67410465670433   13.43638198921616
H        -2.49016392224228    2.91474576981572   14.06114913338285
H        -2.42065909884667    4.66388219687517   13.68334435439939
C         2.18307200420150    2.27621088185435   15.99945725383168
H         1.42160690156338    2.93295379406745   16.36789399491205
C         5.12745550067436    0.34607566458244   15.96779434263165
H         5.66697650047568    0.35524441337522   16.89632429238031
C         5.63612032441797   -0.35771307804608   14.89276118080213
C         4.95811359236698   -0.37351808971779   13.65504956385679
C         3.75526835950089    0.29501985978617   13.51463243755560
H         3.23187565861499    0.28858761154020   12.57106478678605
C         3.25509469820655    0.99999447270179   14.60114212572489
C         3.93951263336325    1.05519844043881   15.83167495110632
C         6.93938553714559   -1.07986102691345   15.04851723158999
H         7.19917850361604   -1.17541107261812   16.10058300768913
H         7.73905038122073   -0.52493647438377   14.55682625280333
H         6.90141406372715   -2.07294643484495   14.60655924265948
C         5.54494258649007   -1.10330176271842   12.48709940754233
H         4.94681286639798   -0.94303633600033   11.59465363875419
H         5.59405560328102   -2.17487877377993   12.68050411374973
H         6.55817122520819   -0.75457299744934   12.29685539056211
C         2.64080693883846    4.11067636747076   21.32772566360876
N         5.36332546417036    2.99795047668054   18.02475262187253
N         4.26896656630340    0.84259510626728   19.11559199281719
N         1.81862797208245    2.29072549217114   18.99730272631948
N         3.27717677193650    4.35500154085498   18.21036013191661
N         8.71885151791443    4.05574607951833   20.68419475455946
H         9.61511245916048    3.92947628570986   21.12603199665752
H         7.92823313140905    3.52715156725954   21.02755445074712
N        11.22460793501548    2.47557755537663   14.27287490193801
H        11.59848305551312    1.98375938086913   13.47795998630023
H        11.69522657959823    3.30372543515337   14.59033787732040
N         7.57026627029238    0.39279487478553   22.84063204927127
H         8.28713589279539    1.02685732020464   23.15714277604474
H         7.47035687712964   -0.47874931725579   23.33029183073923
N         3.01998815259121   -2.11530571943206   15.90514500001279
H         2.83761573151098   -1.55259303605230   15.08975264571457
H         3.74962987342980   -2.80258175692717   15.85124345520915
N        -3.22411952242480    4.41078140194166   16.90837815070936
H        -3.50380199976734    5.34998049924261   17.14020677985513
H        -2.79185215845694    4.26906895139817   16.01214878636330
N         4.85769775863977   10.00253997546265   16.88318153585591
H         4.82368780421819   10.70017829567450   16.15786222522611
H         5.14872499380174   10.28197519136537   17.80247107551167
N         0.09320984027794    8.10432269362227   14.27626660426402
H         0.95336352784676    8.27859554127004   13.77770643355834
N         2.13097108544842    1.76850934828540   14.76240652625952
N         3.23123893645957    1.87491654106747   16.68612804144988
N         1.67738515212242    4.66739781013346   21.62560907142639
O         9.59353667980627    5.53772515089219   19.23837957334561
O         9.52235501222015    1.02542213289771   14.45973618919482
O         6.66847084813173    1.98495980087359   21.55077873629697
O         1.57430415583910   -0.93348882606925   17.15032275616838
O        -3.60517348471520    3.68929441398783   19.00427970478844
O         4.34822076506242    8.37620125495540   15.42276762546912
O        -0.97773452193700    6.57826379533261   15.55522581054794
O        -1.16460473574311    5.40162245450272   10.73360883515273
O         1.27692462559075    6.16798207708106   10.20756056006814
O         0.58021800672100    5.48747524433081   12.60641445956313
O        -0.24698965164986    7.62948330906220   11.60613413437510
O        -0.05329228363429    2.41161680855476   14.23362622323240
O         2.51212815883361    4.18146341370700   13.82547563952991
H         2.33336374056716    5.09271979828563   13.52641150521791
O        -2.28273511507167    3.33292114553169   12.11902413446282
H        -1.98357755352620    4.06622604502945   11.52817095024424
P         0.09080088555421    6.13293798859968   11.06906222900895
Co        3.65143120731735    2.56605841265853   18.57269536783033
Se        4.16287931836992    3.24473225411918   20.92460364670900

