57
CSD_code = EJAGOL | q = 1 | S = 0 | Stoichiometry = C28H24AgN3P(1+) | MND = 3
Ag        7.53669259680544    4.66312184244691    4.24865269396699
P         9.00906791920922    2.73803460916681    4.31581981735500
N         5.71010613289623    7.77832206332576    4.15232508373733
H         5.23492502422672    8.66957451828585    4.22542449158887
N         5.42294040852942    5.48956432097717    4.68591375527851
C         4.96904049745668    6.74258545488689    4.67275385993363
C         3.70384420407308    7.07385829796762    5.19073292414244
H         3.36697560946117    8.09911680027368    5.17083580179118
C         2.90701018407983    6.08402464625307    5.71480006748747
H         1.93326152078507    6.31885502640671    6.11527155195414
C         3.38007964921151    4.77421258229378    5.71352864481161
H         2.78765355813105    3.96573732169370    6.10737605286899
C         4.63194352438504    4.53607461043498    5.19379877208697
H         5.03668937725621    3.53102369494680    5.16712378651823
N         7.68593705963853    6.81043404949018    3.27806605979867
C         6.90642668404344    7.87265112646843    3.47940395088695
C         7.26338071699663    9.15042911668650    3.01093513258022
H         6.61274995261715    9.99167269437003    3.19564149049074
C         8.43922413524779    9.31212874849664    2.31789192795711
H         8.72929038450028   10.28392598557821    1.95003750035671
C         9.24362374257242    8.19675356272106    2.09696439479316
H        10.16980970529287    8.27522878968510    1.55302003172411
C         8.82457087019670    6.98383429470859    2.59479303700101
H         9.41644405180928    6.08839878498569    2.44181039763418
C        10.46112714170279    2.90037833514961    5.39692176561725
C        11.06176214879198    1.81759766858064    6.03032480842519
H        10.64227394413497    0.82652137686612    5.92596143937039
C        12.19142043881223    2.01907329220836    6.80387284276140
H        12.65838892505673    1.18017810974535    7.29716541829786
C        12.72304438990378    3.29060864211339    6.94665667611581
H        13.60470510309011    3.44049621521944    7.55040599774781
C        12.12106183362456    4.37260108328543    6.32263273109201
H        12.53224584158738    5.36362006812527    6.44111422671558
C        10.99000038329067    4.17881517105121    5.55307530770489
H        10.49952011277665    5.01788253485794    5.06463531976521
C         9.75179062377841    2.44938637005773    2.68211199844146
C        10.92280808059457    1.71724485408744    2.51021581480939
H        11.42977308195687    1.30035186402355    3.36915567817310
C        11.43539039567886    1.53438813840392    1.23862970573484
H        12.34282519241621    0.96581901895804    1.10326916615734
C        10.78946602686698    2.08028363766316    0.14005266191530
H        11.19539324175526    1.93563428482670   -0.84918553956910
C         9.62629752912903    2.81515209485247    0.30849224734777
H         9.12638556162590    3.24227811618475   -0.54754079432772
C         9.10983706195203    3.00126054403355    1.57727038312732
H         8.19577830432801    3.57698892294508    1.72801906816924
C         8.30816589047822    1.13435820829396    4.80529907821403
C         8.41893486203068   -0.02556784741445    4.04837042936427
H         8.94376684877670   -0.01142170464487    3.10383839107256
C         7.85139928711909   -1.20037264653713    4.51300915846460
H         7.94009189004477   -2.10354045037236    3.92856094931287
C         7.17362828655212   -1.22080080688776    5.72067022974418
H         6.73582045996345   -2.14043771166100    6.07708425849525
C         7.05100980805051   -0.06064283997315    6.47134190664214
H         6.51830043402794   -0.07640229919724    7.41021217012826
C         7.61052527162186    1.11559335258595    6.01243595673551
H         7.52237408886612    2.03211146002973    6.58699932143825

