33
CSD_code = EJALEG | q = 0 | S = 0 | Stoichiometry = C12H14N4PtS2 | MND = 4
Pt        0.00000028034376   -0.00000002085298   -0.00000073649072
S         1.46227112173876    1.74969888570803    0.69410571210871
N         3.56926953731288    0.34838619180195    1.61629438920094
N         1.67209479439484   -0.76797107421589    0.72987623796282
C         2.37281041433158    0.34723444013928    1.07370136102340
C         2.21978159491525   -1.96002294705423    0.94833634515070
C         3.48873738630176   -2.02078887380753    1.52230564360019
C         4.13813848999863   -0.83249897509676    1.84653222985023
C         1.44733554316117   -3.17426684258836    0.56684916829301
C         5.49393946688781   -0.80642753503459    2.46436077590888
H         3.95315905489717   -2.97475927426402    1.70961387705817
H         0.49113822982075   -3.18256739710997    1.08878621284526
H         1.22320221798303   -3.14864706712109   -0.49898144932473
H         1.99968021387945   -4.07891887179913    0.80178739920679
H         5.87701451114372   -1.81112532063702    2.61651002849272
H         6.17277148982671   -0.24752871825681    1.82334675482320
H         5.44691100468431   -0.28290448908997    3.41713763641071
S        -1.46227124919149   -1.74969888645290   -0.69410541742951
C        -2.37281041731919   -0.34723443865332   -1.07370134230630
N        -3.56926953851083   -0.34838619038089   -1.61629437490531
C        -4.13813849207143    0.83249897626608   -1.84653221619210
C        -3.48873740488797    2.02078887633218   -1.52230559949990
C        -2.21978163416481    1.96002294877883   -0.94833625352977
N        -1.67209482974867    0.76797107610935   -0.72987615092176
C        -1.44733556450138    3.17426684405149   -0.56684911716873
H        -0.49113825662319    3.18256737746909   -1.08878617028521
H        -1.22320222944640    3.14864708945437    0.49898149893843
H        -1.99968022866862    4.07891887310489   -0.80178736282927
H        -3.95315906113678    2.97475927795308   -1.70961386466179
C        -5.49393946133399    0.80642753560127   -2.46436077784901
H        -5.87701450505357    1.81112532107011   -2.61651003294915
H        -6.17277149132985    0.24752871724706   -1.82334676650265
H        -5.44691098763343    0.28290449132842   -3.41713763802842

