36
CSD_code = EJAMUX | q = 0 | S = 0 | Stoichiometry = C15H12CrO8 | MND = 6
Cr        5.18652197119934    6.95410386833074    1.53806774849469
C         4.97979245404424    6.97769076370503   -0.30813239989315
O         4.84004229493929    6.99705380915071   -1.44997524794419
C         5.34121891466464    5.09628112776385    1.38678272369296
O         5.44161579438711    3.98412066080991    1.12081740280558
C         5.06828043309497    8.81722259715381    1.37384164056338
O         5.01257219390243    9.91238378685725    1.02364851073407
C         3.33166342096632    6.73964636282490    1.63061689561467
O         2.20159344961466    6.54229365783315    1.54995550451610
C         7.02047433151558    7.11456781786595    1.21121905728228
O         8.10523176114500    7.20050102720962    0.83940369940357
C         5.29650541252846    6.80630553303098    3.58600402179665
C         5.92296752113543    5.66401442451961    4.25390886836719
C         7.10929381293302    5.09703044749921    3.76014089744610
H         7.59025004716997    5.56700275748288    2.91824922168271
C         7.68396002188653    3.99525783545191    4.35574374435866
C         7.06201460668246    3.40567470592069    5.48749840413316
C         5.89235133092208    3.96665059462092    5.97746095576500
H         5.39699421904957    3.53230422399472    6.83114683640457
C         5.33959665236748    5.08633842108309    5.38164117883904
H         4.42026181362375    5.49415121373704    5.77219235100152
O         4.66116747394622    7.51567694147934    4.50745902031203
C         3.90899284657325    8.65949829779733    4.17150079866503
H         3.52324624760738    9.05511839060246    5.11107329977294
H         3.07709147416250    8.40447541042929    3.50867800641640
H         4.53762201253078    9.41156732367405    3.68692531311755
O         8.83115970370064    3.39829727275217    3.94649950541491
C         9.45954501318388    3.88381154461691    2.78360434857003
H        10.31762507469287    3.23324677312433    2.62337997396014
H         9.80616759290369    4.91416575596648    2.91184151848004
H         8.79462231859731    3.82966826944462    1.91576227234691
O         7.68623361370399    2.32040908466815    5.99706903118378
C         7.13502433979322    1.69275906824306    7.12976566261228
H         7.80231845077448    0.86350841142121    7.35830876571546
H         6.13207202523752    1.30424115306401    6.92606297393734
H         7.09540935514669    2.37256066624446    7.98683749502750

