67
CSD_code = EJAMAE | q = 0 | S = 0 | Stoichiometry = C27H34AgCl3N2 | MND = 2
Ag       -0.79820245455932    0.55079147862788    4.14891058894565
Cl       -0.79820322298021   -1.68404358626209    4.14891436066072
C        -0.79820418722841    2.65938350256366    4.14890854688417
N        -0.80057169388339    3.47527831054034    3.07593132923683
C        -0.79963323437958    4.79271987826140    3.46659980014358
Cl       -0.80194811700421    6.08011620830340    2.35342082375244
C        -0.80209570256061    3.02612671459100    1.72453085826514
C         0.42030213215328    2.81707388770250    1.08345205638529
C         0.39501043896666    2.38486467763700   -0.23568573512529
H         1.32172578884372    2.20411860498099   -0.75657211983022
C        -0.80430208467227    2.17303673098860   -0.88786522737819
H        -0.80534013120519    1.83494881720210   -1.91317935317085
C        -2.00245406140861    2.37726409405649   -0.23109287176453
H        -2.92990309096165    2.19014942654856   -0.74837827463846
C        -2.02561772522656    2.81008869826257    1.08789231938090
C         1.73043466585137    2.99487201139745    1.81210781456486
H         1.54448125358984    3.49358366676042    2.76861411208676
C         2.71096767590932    3.86330373619143    1.02224270503781
H         3.59612199176254    4.06000489324890    1.62280624459775
H         2.25193839526576    4.81484195643466    0.76224794830637
H         3.02716605582509    3.37138366581351    0.10680926378596
C         2.32700268043819    1.61621519063210    2.10766860156652
H         1.61924758643408    1.01337632784816    2.68739427979232
H         3.24727417070586    1.71674178353571    2.67778625728764
H         2.54564955882439    1.08677628525242    1.18409749726308
C        -3.33401344484324    2.98137488624950    1.82128123095218
H        -3.14759293653824    3.48644791861200    2.77435965132907
C        -3.91898024649916    1.59976692238078    2.12615131775088
H        -3.20377977922615    1.00425924081966    2.70473015622129
H        -4.13864675009753    1.06479774440951    1.20601227198140
H        -4.83685954950525    1.69612130494292    2.70082227647164
C        -4.32518743734868    3.83782036881112    1.03171309432623
H        -3.87639915116505    4.79297408552886    0.76739272718889
H        -5.21049681599757    4.02753782308173    1.63431176482046
H        -4.63931514126888    3.33995354306795    0.11885129837358
N        -0.79583414449157    3.47527893516472    5.22188512982162
C        -0.79676916771774    4.79272030216403    4.83121585676648
Cl       -0.79445086744318    6.08011716180268    5.94439418452977
C        -0.79431037361372    3.02612826698930    6.57328599336424
C        -2.01670850310829    2.81707709814795    7.21436502332264
C        -1.99141707949341    2.38486902530351    8.53350303694949
H        -2.91813220646862    2.20412401283362    9.05439019931924
C        -0.79210470631374    2.17304037452034    9.18568285747603
H        -0.79106724322096    1.83495340753071   10.21099729376771
C         0.40604730292735    2.37726610940258    8.52891045888196
H         1.33349666500254    2.19015139326787    9.04619519079336
C         0.42921128388249    2.81008985674409    7.20992476926729
C        -3.32684085720731    2.99487634714692    6.48570925597377
H        -3.14088669336215    3.49358605894153    5.52920205693943
C        -4.30737171066181    3.86331136789300    7.27557337200448
H        -5.19252691172341    4.06001132643306    6.67501081164584
H        -3.84834120573828    4.81485009289375    7.53556429091590
H        -4.62356878611789    3.37139451461382    8.19100899344254
C        -3.92341171136013    1.61622024911542    6.19015068011251
H        -3.21565750396943    1.01337892919907    5.61042636333002
H        -4.84368269173978    1.71674776501296    5.62003231315595
H        -4.14206020040088    1.08678330905851    7.11372251270138
C         1.73760754915964    2.98137485658445    6.47653657941907
H         1.55118796383758    3.48644692260628    5.52345746059691
C         2.32257440012575    1.59976642317380    6.17166864547215
H         1.60737411260857    1.00425787585450    5.59309069596411
H         2.54224092744347    1.06479885389098    7.09180862884250
H         3.24045379221710    1.69611996901068    5.59699770575608
C         2.72878115849020    3.83782091380882    7.26610465030297
H         2.27999292971218    4.79297505267472    7.53042367200596
H         3.61409108616686    4.02753753884692    6.66350650399742
H         3.04290795656836    3.33995489034803    8.17896719770922

