45
CSD_code = EJANIM | q = 0 | S = 0 | Stoichiometry = C19H20CrO5 | MND = 9
Cr        6.57957683366288    1.57275751725831    3.50879459376976
C         7.92112011270321    0.36659446009202    3.78613891861521
O         8.80108705712732   -0.34670737196279    3.99955563986343
C         7.83465331513121    2.56881202075507    2.63586764731444
O         8.66261408590193    3.20053663465278    2.14276638959687
C         7.33337489998687    2.36684712505216    4.95686987260145
O         7.85979372466951    2.86502786607552    5.85786806888871
C         4.81475116585775    2.54546674156604    2.46586490055210
C         4.54853645783133    2.48302701172710    3.83783010941918
C         4.57486706871130    1.21266883932250    4.49780413521849
C         4.88146868972933    0.05991674822336    3.76687833142902
C         5.19812890354217    0.11528750611090    2.36588396664164
C         5.62601044595511   -1.01402905682996    1.63240894982657
H         5.76275263169964   -1.95272410314136    2.14812051229177
C         5.91177906038502   -0.91644510733034    0.29601371574473
H         6.24181176489523   -1.78784817133141   -0.24834833651275
C         5.79840493525256    0.31151363164085   -0.36738278159605
H         6.02799212557006    0.37267363039419   -1.41999171251754
C         5.42908004891024    1.43704085836303    0.32033871952311
H         5.38931502665493    2.39500281371269   -0.17660989422741
C         5.12691918535013    1.37372037870411    1.69771286537010
O         4.78543097548632    3.76328954674559    1.79811949201439
C         3.54884622880246    4.06450925193798    1.17821563234066
H         3.72070339186023    4.95781984269685    0.58091332401971
H         2.77026721885487    4.27030991287791    1.92052071223111
H         3.21162576369468    3.24909338034718    0.52902634826747
C         4.25949869844415    3.77599628829801    4.56366371005141
H         4.57400421357378    4.59279591154391    3.91041120055597
H         4.86870767330039    3.83783371446972    5.46814650108381
C         2.78617159806653    3.97073572306166    4.93261367236349
H         2.62312725433746    4.99544643702989    5.25764723740349
H         2.48851267527284    3.31090705305595    5.74137607384625
H         2.13909815557927    3.77774984150790    4.07845001809037
C         4.30598514941271    1.08157244460598    5.97834835101091
H         4.49860678619487    2.03577081408976    6.46751701568740
H         5.00729803388536    0.35142771295103    6.38841448497649
C         2.87916888624219    0.62348880733920    6.30542193108960
H         2.65607762886599    0.82743227701317    7.34987316394323
H         2.77085481011018   -0.44506334504717    6.14758053118249
H         2.14430418556015    1.13687577377545    5.68844018103700
O         4.87423279559317   -1.17160546207431    4.40711195323655
C         3.78932219786988   -2.01609782655176    4.06506387867569
H         3.90901110268038   -2.91145474639540    4.67191193121000
H         3.79163845931313   -2.29088389844764    3.00603070667911
H         2.82706857747104   -1.54488942788595    4.29309733719067

