47
CSD_code = EJANOS | q = 0 | S = 0 | Stoichiometry = C20H20CrO6 | MND = 9
Cr        1.04217950785231    4.00966008933516    7.49448819961401
C         0.97380509351963    5.15266020199530    8.91481591725540
O         0.98644424050526    5.89830334436958    9.79420012648585
C         0.42016606544592    5.40556346357608    6.49160612016631
O         0.08830703259497    6.31925642459258    5.87503916388757
C         2.63149373617731    4.84649036393952    7.22783193581294
O         3.62320357652066    5.41965769595072    7.07337787438477
C         0.95449075409852    2.19033052259330    8.76840504598839
C         1.95589778301401    1.98541293663290    7.81606813880030
C         1.62976414221132    2.11291849170415    6.43077569234480
C         0.31481276326073    2.42396711083032    6.06787561454464
C        -0.73774439640952    2.54409662554953    7.04024708770703
C        -2.06945372720574    2.82732944564859    6.67299770123476
H        -2.30357013557994    2.95436046640488    5.62660268843264
C        -3.04477742303664    2.96036645157073    7.62646817974018
H        -4.06050071545723    3.17573868102258    7.33267883563668
C        -2.73067040324399    2.82685060698638    8.98343698594931
H        -3.50739938543167    2.93670034879467    9.72421159548412
C        -1.44339577966059    2.56972323838103    9.37804767708598
H        -1.20975333885594    2.48125855802648   10.42874591053996
C        -0.41689369927435    2.41762435502590    8.42399918015391
O         1.29954759345269    2.12343905130403   10.12632758065848
C         0.88672666523031    1.05270864783247   10.83245633790724
O         0.27693864034136    0.13536144065350   10.35349006881021
C         1.30835513237221    1.18024140313067   12.26909778261990
H         0.86441175669972    2.07564928813258   12.69828676272732
H         2.38948953951367    1.28572520986727   12.32223715265459
H         0.99006776263981    0.30283786164266   12.82379967143151
C         3.33399489527794    1.60955714010991    8.29943375027494
H         3.56534995089093    2.20262919570745    9.18823709311661
H         4.08045513547876    1.84508570473380    7.54131820404497
C         3.42238866094382    0.12157095392795    8.65863864728598
H         4.43327808893604   -0.12446036244233    8.97553127054105
H         3.16448696877975   -0.50362253813617    7.80711475747798
H         2.74090763034248   -0.12885018810072    9.46749849930057
C         2.66378764996499    1.98203290248597    5.33819982402156
H         3.55173940054953    2.56245640741420    5.59878670658586
H         2.24170670218577    2.42935475107450    4.43572581356695
C         3.07315294711442    0.53731035868659    5.03572666938324
H         3.62362290355636    0.50152398165231    4.09815645237793
H         2.19956472814438   -0.10647465466784    4.94412541121147
H         3.71274897549524    0.13367955337762    5.81520013481862
O        -0.02287913720425    2.59170896915203    4.73280374605356
C        -0.51212696485772    1.42477658764897    4.09388703740224
H        -0.88376980482331    1.74706287180156    3.12302437736886
H        -1.32462030276429    0.96194354850245    4.66339857911350
H         0.28376879069470    0.68698249157852    3.94937799799537

