71
CSD_code = EJAPAH | q = 0 | S = 0 | Stoichiometry = C27H38AuCl3N2 | MND = 4
Au        8.38165927452820   16.54120328522805    5.74067546776458
Cl        7.88677099584007   18.57636745375147    6.58149604459706
Cl        6.20655709873587   15.93412298158983    5.86809413324632
Cl       10.55832789987042   17.12509179720471    5.54255634800762
C         8.78760021796608   14.72580941703257    4.98475636898956
N         8.51101153185635   13.58367541179837    5.58887403159877
C         8.99062096683072   12.44328345920009    4.80555123651143
H         8.22772694317134   11.66976616904710    4.73687915378925
H         9.87691751011149   12.02166274321137    5.29378133831261
C         9.31556664993925   13.08941300344568    3.45962939120329
H        10.27745207306606   12.78213053460419    3.05235132331693
H         8.53927402654035   12.90148737422835    2.70891623415138
N         9.31699656025274   14.51426026872614    3.79380121447350
C         8.05008488438511   13.41988014994783    6.92684746342650
C         8.89787715087710   13.76394544359072    7.98534589030721
C         8.42847973498895   13.58491373555188    9.28076818374418
H         9.06154510030766   13.84413071787369   10.11425427159171
C         7.16679130047774   13.07829359781896    9.51725967036439
H         6.81821337316483   12.95233014414557   10.53132147196492
C         6.35365517802272   12.72436484731185    8.45876031806714
H         5.37501597281035   12.31818690321128    8.65727055312627
C         6.77384623370319   12.88908098933354    7.14634393492176
C        10.31037740782287   14.25946890520662    7.77749740331384
H        10.47047277517187   14.50252491695219    6.72286883794498
C        11.30404185922304   13.15896294563433    8.16504525212815
H        11.13098591040112   12.25423447176382    7.58413165875974
H        11.20581158665462   12.90780011790081    9.21830143395875
H        12.32066781191890   13.49931370125528    7.98398414685150
C        10.58456582584163   15.53229365900246    8.58057895966601
H         9.79047656531830   16.26062623855610    8.42636027890690
H        11.51885320849630   15.97920566682587    8.25067138812067
H        10.65853315883396   15.32317491407166    9.64459558521089
C         5.87109437347110   12.45672624979884    6.01417709615718
H         6.27219301263350   12.84478798083501    5.07393166428876
C         4.45492324202582   13.01596722729587    6.15548950976003
H         4.49204675221233   14.09732700010766    6.24269219796722
H         3.94834930158066   12.60713007871893    7.02496648955507
H         3.87327632001398   12.75875090386880    5.27307565540406
C         5.81878293433549   10.92454608918210    5.95649369818689
H         6.81482487592811   10.48645414437532    5.90988012165938
H         5.25458762222037   10.60080064430515    5.08454409985009
H         5.32800340218327   10.53389696143505    6.84448400056626
C         9.73261098716449   15.49909193843359    2.85239282815040
C         8.76940580068847   16.24758883350626    2.17051635084529
C         9.20900620591910   17.20073631649135    1.26008654756187
H         8.48626660418937   17.79533270399459    0.72432803510348
C        10.55553615011514   17.39733220738969    1.03127781087247
H        10.87791523526382   18.14638462880684    0.32375600925988
C        11.49119152897024   16.63343373461914    1.70108903294740
H        12.53990046226647   16.79126613938037    1.50732992321707
C        11.10261645500116   15.67485152488179    2.62571016985793
C         7.28632302740298   16.02211014749011    2.34898601860227
H         7.11169244085569   15.34035432117289    3.18687147301955
C         6.55551522696000   17.32863282812627    2.66394962888975
H         7.05181416208273   17.85974545705839    3.47469252593895
H         5.53687482426304   17.11368218359083    2.97667333441215
H         6.52058265701685   17.98342162777003    1.79717678144236
C         6.70806977171275   15.37501984879551    1.08616389829036
H         5.64903899611326   15.17300520635818    1.22614536495551
H         7.21521095860377   14.43753657165601    0.86334564898572
H         6.82393759677825   16.03424742338286    0.22950182284230
C        12.15261220062317   14.83991342182067    3.32235410469816
H        11.68075710793412   14.27693830207960    4.13280444218954
C        12.77815403685952   13.85933229825444    2.32226475446781
H        12.02110057062470   13.26493496318121    1.81238484079278
H        13.46281165965260   13.18615207968817    2.83371276926499
H        13.33667944455525   14.40292081097494    1.56442707146975
C        13.24444028500814   15.70119101530141    3.95875904230894
H        12.79571029294445   16.43445057602841    4.62226198581264
H        13.83130928569638   16.21994425437173    3.20630288289723
H        13.91645740100111   15.06985539045313    4.53623137916604

