39
CSD_code = EJAPIQ | q = 0 | S = 0 | Stoichiometry = C15H21IrN2 | MND = 6
Ir        3.91628163952061    3.57537265403671    6.50647380252393
N         4.14041955638419    5.01727938626740    4.98746041909847
N         2.09132177302410    3.51275723902847    5.74302929316096
C         5.16465276214490    5.85381690105810    4.76127749164323
H         6.05010167592001    5.70780508272623    5.36198975706886
C         5.13766097852599    6.85617175794965    3.81831846354450
H         5.99714001645607    7.49378725310205    3.68393776855411
C         3.99224400484935    7.02519937245976    3.04602426039151
H         3.93711484214663    7.79694024286118    2.29392961253406
C         2.92786523412177    6.17402010409439    3.27497511297002
H         2.01412817229792    6.26229894380254    2.70706400833720
C         3.03054293584746    5.18557384633863    4.24509468771947
C         1.90902651145776    4.24315271260041    4.51902785397046
H         0.96110142254226    4.81435285693421    4.53859024161947
H         1.82740325286655    3.55880597029425    3.64755103376402
C         0.99366632064838    2.59599917726931    5.91967832150595
H         0.03381626126558    3.13527782306732    5.89369135850354
H         1.06068517717564    2.08900695307960    6.87828054665165
H         0.95540489694625    1.82929888853653    5.12613824542049
C         3.93510619620942    1.55360826152291    7.17143105601958
H         3.17062897939730    0.95629322302716    6.67775297686052
C         3.52381074328013    2.39249306831248    8.22827649520543
H         2.46259104509253    2.39805757829394    8.46607259721008
C         4.40625156488250    2.68729604551677    9.42972109634341
H         5.06134768714543    1.83452338196598    9.61211225465578
H         3.77704555754267    2.80312694426498   10.31402401619673
C         5.23128938672357    3.97024249297086    9.22966973159312
H         4.69177246490168    4.81226229300916    9.66787161916566
H         6.19037125535480    3.89328333262160    9.75547083336912
C         5.47061351105448    4.28059314189808    7.76550399267035
H         5.70635757951214    5.33292108496530    7.60146086980512
C         6.00283153645481    3.34214912218412    6.85819378942271
H         6.59668950889963    3.73118894913335    6.03290583874579
C         6.43833892247299    1.95104893852688    7.28501516446793
H         6.76397221268574    1.97603896632660    8.32565755321290
H         7.30021247321099    1.64650173442426    6.68784310007899
C         5.30991683181170    0.92274521120825    7.09657932288425
H         5.41305342733344    0.45495499056907    6.11581516950203
H         5.38692168189185    0.12615407375197    7.84489024360812

