46
CSD_code = EJAPUA | q = 0 | S = 0 | Stoichiometry = C15H24I2N4Pt | MND = 4
Pt        8.95079206089965    3.27270165965759    3.03830489839049
I        10.82651726346978    4.89684521120709    3.91304751324830
I         7.62823690863258    3.32427124617877    5.31418009106909
N        10.91061551803222    3.13939669608177    0.59850253540925
N         8.86718170894026    3.66494262262952    0.17454877978241
N         6.94252762125276    2.65959242314486    1.04582284651756
N         6.85942220404805    1.02851725432832    2.44809807052523
C        12.56732428712041   -0.20598519381132    0.34210115986733
H        12.71159044453350    0.51201738416375   -0.46180443199617
H        12.26153449770677   -1.14902618788254   -0.10515339876936
H        13.52039413433442   -0.35880944751433    0.84311279154521
C        11.51577398432010    0.27111179950363    1.33758431506336
H        10.57950920143341    0.47818631008395    0.81076486886935
H        11.31928546477914   -0.53121177375478    2.05076246197730
C        11.94639364616599    1.50661532992262    2.12576432327172
H        12.88595360365216    1.30662287714421    2.64161772466648
H        11.18919597301080    1.72908660364582    2.88960150610243
C        12.13440364928777    2.75514537829751    1.26608488948306
H        12.46069523727328    3.57932687427684    1.90760012854345
H        12.89341293986329    2.58990284668180    0.50019419872465
C        10.81042369214551    3.33892499372956   -0.75268479944147
H        11.65152002005642    3.24172279662629   -1.40775949693053
C         9.52655793359667    3.66263061881593   -1.02715898573940
H         9.04230520526327    3.89970759207079   -1.95160621383632
C         9.71724311111230    3.33987998554331    1.18056879163104
C         7.45515006024272    3.84199751307482    0.40180287057652
H         7.29508850735155    4.71464494071669    1.05715737178212
H         6.94195119487160    4.00144170363712   -0.54985205325931
C         5.98164985638374    1.79744982954627    0.58460902273136
H         5.42009798742997    1.98250556204798   -0.30742824491243
C         5.92860430811509    0.77996731128478    1.47402544095151
H         5.30510719212500   -0.09002533081222    1.49057931632639
C         7.48758811375306    2.18802459114748    2.19390628446659
C         7.09866351610650    0.16235475300095    3.58169875516778
H         6.72591151837849    0.65380263422770    4.48613175856619
H         6.53151375529557   -0.75817761571988    3.42592813284902
C         8.58347148836934   -0.14529795318958    3.75784499450964
H         9.13257108277181    0.80655477336683    3.81734678714730
H         8.95230201661782   -0.69611191465892    2.88923137717821
C         8.84765822883514   -0.93464908101161    5.03515737490251
H         8.46320824974118   -0.36970655215628    5.88579657573008
H         8.31495648982884   -1.88794737469439    4.99519315744549
C        10.33743537831350   -1.18451931633696    5.23081467385872
H        10.74610702446704   -1.75902251848109    4.40136963769744
H        10.51202365805857   -1.73826413996472    6.14928232462238
H        10.87293006201440   -0.24033771578991    5.29450987368846

