104
CSD_code = EJAQIQ | q = 0 | S = 0 | Stoichiometry = C50H44Cl2O5P2Pd | MND = 4
Pd        6.70260237993037    7.36479601312017    3.18453668217517
Cl        7.63439017620604    5.32997269920566    3.12281153743190
Cl        8.61900655915124    8.41558841056015    2.59874347187991
P         5.76064043582438    9.35469187241973    2.97286869274698
P         4.78974727920870    6.69608123139682    4.12164386923290
O         4.15514370311390    9.62152579398495    3.22053923474048
O         5.96899096042114    9.42938993984591    1.39753506221460
O         4.71016189010820   12.49989913732774   -0.10202331808217
O         6.16586663150003   13.51186211699173    1.30133740174041
O         6.36211566673061   10.66736702759571    3.59164335754916
C         3.11095356635630    8.72700935874440    3.15169316724246
C         3.23759923110080    7.36447369798647    3.45042153949086
C         4.42041575573576    4.97654808992426    4.55484877240392
C         4.60150617945225    4.03321574848606    3.54566421489689
H         4.93497360739042    4.36353531421858    2.56962338209773
C         4.38529145783534    2.69452844553082    3.80934306632061
H         4.53099498737093    1.96042853858881    3.03149049591492
C         3.99951151224638    2.29496439319192    5.07953323805364
H         3.84119902524764    1.24758845462007    5.28930042969266
C         3.83017620938099    3.23219093762552    6.08562577174422
H         3.53993231170472    2.91477619657710    7.07626199497427
C         4.04228055796656    4.57563637653949    5.83028989219164
H         3.92354459967096    5.30863241390631    6.61588792912069
C         4.88828751270588    7.62172259614725    5.69428530231326
C         6.16096393858652    7.92967598703514    6.18017685377123
H         7.05426549230520    7.55249979712764    5.66116503005424
C         6.29846254796009    8.69648674268097    7.32338608380795
H         7.28317681913699    8.94039125226289    7.69243804538122
C         5.17277831094914    9.16056220676839    7.98696964237132
H         5.28227771831339    9.76993777536378    8.87170518525888
C         3.90890129737898    8.84444322307726    7.51647685526352
H         3.03171656732554    9.19764347227446    8.03876802084368
C         3.76264652987999    8.07755510646439    6.37364967796668
H         2.77567400644018    7.83831013557853    6.00107678926949
C         2.13690567073798    6.52574409411916    3.28780831450206
H         2.24774206382742    5.47203914585146    3.49808686583231
C         0.91870590015066    7.03013260170400    2.88130927783000
H         0.07525981529367    6.37057215325036    2.74888537103247
C         0.77911141559308    8.39156855048602    2.68891417455088
H        -0.18330827971086    8.80378593725794    2.42560984582360
C         1.85590428084673    9.25576198017329    2.83065648714722
C         1.65462541019071   10.73004592304444    2.66566486427299
H         2.32188161255760   11.28115938207842    3.32239319612263
H         0.62644315959557   10.99452199961493    2.90110508290459
H         1.85270785555741   11.02738836802973    1.63680075803512
C         5.26461724477912   10.13255606068058    0.37904305537536
C         4.97034785990306   11.55997980170874    0.91421206171236
H         4.08934616953229   11.50120903826041    1.56837747308514
C         5.64088645080919   13.57765806803734   -0.00800465533840
C         6.16107341138419   12.15973837400290    1.69282770131483
H         7.09599584664948   11.67064868626607    1.37255987169399
C         6.12485072925123   12.04289367678324    3.23653240382119
C         7.33369322873802   12.81820220536650    3.74798506428660
C         7.21454878186463   14.12869044215097    4.18851707931568
H         6.24930327622256   14.61038046412695    4.20106660605321
C         8.33518372479240   14.82489172048797    4.60656646541821
H         8.23254967384074   15.84528839642867    4.94575471432648
C         9.57983028047045   14.21978316222533    4.59226085518032
H        10.45189558821136   14.76553523675542    4.92133017168837
C         9.70047737026268   12.91302135453015    4.15225779725388
H        10.66657880463170   12.43160296102517    4.13447368027384
C         8.58512660970012   12.21412015281513    3.72583918840634
H         8.68839005407694   11.19364851945993    3.38801837518104
C         4.85504102697299   12.49899977173807    3.91975793785977
C         4.04285746428432   13.50386607947154    3.40778658604217
H         4.30602987300616   13.98295533513154    2.48023672171319
C         2.90934345566931   13.90754096337804    4.09385646644848
H         2.28777253033402   14.68905637505818    3.68204142575611
C         2.57354812224136   13.31742337445152    5.29991627741991
H         1.68755283424497   13.63182337557862    5.83117628889999
C         3.38825345636437   12.32789867043704    5.82436679558437
H         3.14502373738156   11.86717440156952    6.77022018971550
C         4.52412678789065   11.92785815550637    5.14504874927521
H         5.16084747762804   11.16531382974359    5.56754697420516
C         6.75375048961395   13.45016472012069   -1.05286365767537
H         7.35894990421846   12.56844662902840   -0.86436548083713
H         7.38685910457249   14.33124528734731   -1.00212450747275
H         6.31560690254090   13.36657813674723   -2.04254223225882
C         4.89362365476077   14.89897710040952   -0.18490665543848
H         4.59608575957357   15.01098382175162   -1.22242269546861
H         5.54877415855175   15.71523691096646    0.10240538590103
H         4.00484529612548   14.91373008790380    0.43999812936838
C         4.00524494963671    9.34881828913664    0.06492703289384
C         4.00674753276251    7.97013302571932    0.25291534729048
H         4.90064479654889    7.47050517309101    0.62464748894226
C         2.87815177932671    7.22579033187628   -0.03710466510439
H         2.88870228330898    6.15701104980686    0.11485953275043
C         1.74140610483598    7.84782521603775   -0.52422087950667
H         0.86094412780022    7.26556116999672   -0.75052101770287
C         1.74071749764178    9.21625551564411   -0.72796742374000
H         0.85923112721688    9.70532382405951   -1.11593030453640
C         2.86726175305240    9.96670628918066   -0.43582539597448
H         2.86981977118006   11.03453595208242   -0.59991151120700
C         6.16066877306124   10.14958523004918   -0.85098123308297
C         5.63517653914854   10.50448699979586   -2.08784256156337
H         4.59330843180769   10.76681724562794   -2.17565569089186
C         6.44655042829677   10.52855468500896   -3.20783533118351
H         6.02734199867662   10.80731671730704   -4.16361921455167
C         7.78564593270231   10.19096287723257   -3.10841598108719
H         8.41587902298282   10.20710616358759   -3.98521300767178
C         8.30805765819322    9.82373082917459   -1.88113344966745
H         9.34786258321852    9.54807439289644   -1.79175572302418
C         7.50277843292053    9.80127682111951   -0.75474874177284
H         7.92199700555344    9.49395021551765    0.19173051227214

