50
CSD_code = EJAQAI | q = 0 | S = 0 | Stoichiometry = C14H27AuBN4PS2 | MND = 2
Au        8.04511335763651   19.84403888351479    9.00207406074419
P         6.66729954113285   20.92413839030038    7.54915218416490
C         6.65544805220912   22.76427448028514    7.55374061915392
H         7.70539272435317   23.06666099316794    7.47187245405579
H         6.13485798031552   23.12766251772475    6.66094080120897
B         7.91408087012012   21.21307185540688   11.99862901654507
H         7.45799614299180   21.87962175773740   12.87148835971179
H         7.21017350662580   21.18724485534126   11.01205429763981
C         6.03889635281616   23.33939832407293    8.82444712522387
H         4.96091109951819   23.19490049978852    8.83693865838404
H         6.23857243324177   24.40704183694739    8.88837859906142
H         6.45516405658264   22.86075243113773    9.71040710848794
C         7.05080874310522   20.57096109500158    5.78547443035885
H         6.34324612038345   21.09300177583063    5.13492644313137
H         8.04759887515172   20.98635928507965    5.60411630883057
C         7.05337519961856   19.07256387392833    5.51263298774907
H         7.70890666473609   18.56338692537015    6.21906795825063
H         7.40856274790674   18.86941796542579    4.50481168955054
H         6.05354588361392   18.65544834753299    5.61215795863851
C         4.90765454761658   20.43858247635823    7.76978421632926
H         4.88879117907214   19.34447929749483    7.73194450840261
H         4.65366985995467   20.72448712913945    8.79592956544387
C         3.90679778691988   21.02515149255657    6.78108035529294
H         3.92299207260896   22.11223566064535    6.79840331396446
H         2.90245711736445   20.69928745148443    7.04423910301727
H         4.11257796858737   20.69086558233034    5.76692967010030
S         9.46340871975320   18.62892342250762   10.40452333476804
N         8.08496822763267   19.76382038881020   12.52270323577921
C         8.78743000464531   18.77209892479477   11.97164115433072
N         8.90784198479474   17.76204015875129   12.85978612178424
C         7.75712459444451   19.37131336958421   13.78676949645550
H         7.20709062963231   20.01960678251731   14.43502904332349
C         8.26370046759240   18.13592727137584   14.00746882674177
H         8.23749664154507   17.50640714105869   14.87201041859118
C         9.67129018045709   16.56286905449076   12.67611562769051
H        10.68332300662641   16.69819276415941   13.06402222348844
H         9.73341271413529   16.34486309455680   11.61019995045134
H         9.18883697042100   15.73922434980647   13.20106609561759
S        10.74505757660021   20.72938601850746   13.67709288958272
N         9.31235807677058   21.71445878153513   11.58002611707920
C        10.47848590048005   21.50938844096558   12.23343515368091
N        11.48089189408282   22.07675883141511   11.49610101198173
C         9.59634745810166   22.41303045201775   10.43707716429497
H         8.82046646633265   22.71072234588603    9.76179620000625
C        10.92671267312863   22.64174046676918   10.37567204848648
H        11.52197395527397   23.14993911422871    9.64462097156103
C        12.86882644437854   22.05853637518315   11.84453486704875
H        12.95298669409496   21.55799601908949   12.81079389841006
H        13.25874616580025   23.07558391166593   11.92459608224129
H        13.44683166915533   21.50733733678495   11.09919627304121

