67
CSD_code = EJAROW | q = 0 | S = 0 | Stoichiometry = C22H33ClN6NiO3S | MND = 4
Ni        0.38390920401587    4.17269683466638    8.49382519638293
Cl        1.47673010955250    5.04408391421990    9.95085711205604
S         1.87308918980981    1.65620443799559    4.62780860442225
O         1.26298746800983    2.45972652304923    3.60191136029362
O         1.23939270654708    0.39905270958223    4.92497344993094
O         3.31137417852447    1.67112168544723    4.67720335828595
N         1.84059940643287    2.00281504344341    7.37837142471101
N         1.31980197352878    2.27390973044618    8.59905765806814
N        -0.06170918241487    2.72560313148056    6.22956754366113
N        -0.67441610880424    3.40387238012623    7.20843463209309
N         1.88606007303091    4.01047200157984    6.09343630871821
N         1.41013214486840    5.01529891637963    6.86660499445304
C         1.37478931337005    2.67487312090931    6.20177111770837
C         1.82870859144476    1.39005043553446    9.44617793956536
C         2.71194321204006    0.54591113618733    8.75041629206327
H         3.28457168963493   -0.26292636384475    9.15180386807097
C         2.68733710702845    0.95934809832906    7.44334240638748
H         3.19530424641048    0.61028469293149    6.56878995803083
C         1.46148404122550    1.32160597029197   10.90295581135325
C         2.49820181951003    2.11388595095576   11.71016416634745
H         3.49687755702672    1.72101558836436   11.53514744151979
H         2.27627219097964    2.03937601145952   12.77186080918563
H         2.48243758835109    3.16163761481695   11.42434595478118
C         0.06592273692548    1.91329617727307   11.11446636076203
H        -0.67624649068924    1.32617581065957   10.57643443576030
H         0.03597631833935    2.94511618427432   10.75784466579180
H        -0.18568099400722    1.91241982136542   12.17201552648073
C         1.46483213260960   -0.14101574035457   11.36246167193036
H         0.82949237309178   -0.74879428482576   10.72213623825487
H         1.08983026543418   -0.20389846140153   12.38128022080884
H         2.46948335045096   -0.55343733264592   11.34688653959141
C        -1.98211759233084    3.31044246510685    7.02097662848012
C        -2.20860567645826    2.53838982400660    5.87205947657729
H        -3.15299646920814    2.27253766133289    5.44576617227348
C        -0.96651672540737    2.18319423616152    5.39857506287056
H        -0.66702123760304    1.60007058625375    4.55418949533457
C        -2.95618412731207    4.03263692106952    7.90942679227395
C        -3.23344627823873    5.40259826051177    7.27417692585420
H        -2.31438747713506    5.98125707869037    7.21462605694624
H        -3.95530180448828    5.95458210527677    7.87126014350962
H        -3.63281843248568    5.28373644998457    6.26993510308050
C        -2.34874526194563    4.22341704261310    9.30352578170133
H        -1.33467041390126    4.69411582648461    9.23914586049720
H        -2.27176483938990    3.26859863338670    9.81981192928509
H        -2.96490246800945    4.89129436691900    9.90126405740624
C        -4.26060969785390    3.23938353106981    8.02991903767554
H        -4.06557545695644    2.23059979368353    8.38584982726593
H        -4.76209125636239    3.17573669052054    7.06861966797707
H        -4.92988909515212    3.73121252340019    8.73151838032860
C         1.95711727057542    6.14158902443128    6.43015785544812
C         2.82059497821057    5.84339536229352    5.36193935027269
H         3.41486088192104    6.53136458568689    4.79918054611040
C         2.74368415357912    4.48705938769211    5.17341228560585
H         3.22351451486395    3.83042737409101    4.47819036407638
C         1.64648972239398    7.49697874101761    7.00426722141216
C         1.74375571951788    8.55662021951832    5.90062189532682
H         2.76896546864809    8.67396755613295    5.56170687158621
H         1.40356268837624    9.51514123631616    6.28533598783436
H         1.12394858571119    8.28663630159391    5.04851889312007
C         0.22784543942397    7.50576487904963    7.58085605912656
H         0.10020572873260    6.69231079657476    8.30243748202196
H        -0.50055173192361    7.39006175257972    6.78034962259274
H         0.03695968187553    8.44466631593689    8.09404591860487
C         2.66928761881608    7.81198533505364    8.10379052337712
H         2.58212886885740    7.10136036964573    8.92030336108714
H         2.49748102208087    8.81250498695652    8.49286482906339
H         3.68020548718392    7.76258003696528    7.70632146803903

