87
CSD_code = EJARIQ | q = 0 | S = 0 | Stoichiometry = C29H44ClCoN8O3S | MND = 5
Co        8.78057320569212    2.96777329503759   11.62648258009126
S         6.07922164700469    3.58394736629843   10.56073424412244
Cl       10.34893924494946    2.21005336367484   12.79540623408715
C         5.89379080015059    2.20958774251244   11.88626750572067
O         7.51665149420161    3.48310314411883   10.26841321703621
O         5.65845716004945    4.77647539930740   11.22930540771350
O         5.27418345093380    3.10258687095059    9.47941537746622
N         7.69750121015015    3.28727375819721   13.18916016669527
N         6.48808306540085    2.68378286583163   13.10705085564221
C         5.83176229869278    2.77197132467045   14.27871452022043
H         4.86137263970220    2.34386561333389   14.42297934804925
C         6.64358319214937    3.44085442564517   15.14555472593640
H         6.42028461753354    3.66595332468959   16.16569125976338
C         7.81723860163570    3.76458050607270   14.43654497211458
C         8.94566270535454    4.46918742062615   15.16260023461624
C         9.95449274547363    5.20982165015077   14.29198388149975
H         9.45130452544468    5.93901087502300   13.66631615895225
H        10.52136962585512    4.52746813801134   13.67197239211888
H        10.65906313249213    5.73083082136948   14.93667842721620
C         9.68074952964259    3.40258656010796   15.99184514101669
H        10.44184015563873    3.88263980298739   16.60118059534557
H        10.16392932667652    2.68611798723365   15.33381808081997
H         8.99355287350218    2.87283441425281   16.64751403984664
C         8.32340543656860    5.51250288875690   16.11014293794283
H         7.63346221878062    6.15467517128304   15.56904023501845
H         9.11381199047375    6.13368999255630   16.52298072499331
H         7.80145241850032    5.05401369005669   16.94456622985711
N         7.92006447549527    1.13939222711021   11.20133858072968
N         6.58724894968463    1.08294864181823   11.34800588048433
C         6.06093427573124    0.08868102172394   10.60882667396041
H         5.01071550261546   -0.11026739075349   10.59374399226721
C         7.10504504471263   -0.53968877355810    9.98175861293917
H         7.03904222128117   -1.38497718713092    9.33077930766924
C         8.25961684349811    0.16357610135858   10.35770082906227
C         9.66205248173559   -0.07240762969967    9.86909936288514
C         9.64778495879886   -1.04698101914735    8.68473346837691
H        10.65360256136389   -1.13725483852283    8.28136496844282
H         8.99252922160427   -0.69163220650118    7.89287563260020
H         9.32043428079809   -2.03489092026261    8.99841873820854
C        10.24844579575381    1.26061901534838    9.38511836393329
H        11.31452936397464    1.16033858540182    9.19517836505135
H        10.10758386935162    2.05446188950735   10.13658908508148
H         9.75207076575904    1.58353810552428    8.47177713887500
C        10.51132811174093   -0.67896385260182   10.99359411214686
H        11.50672718852431   -0.90658925609502   10.62021329671181
H        10.05700339156429   -1.60176736894644   11.34781973071714
H        10.60405249180815    0.00681087605195   11.82946940449809
N         4.08827794610478    0.77709059105506   12.57537886560697
N         4.51581543169472    1.94514345977575   12.05470731712163
C         3.47723442319883    2.78498198835244   11.80457664077715
H         3.63971508103254    3.76216967117689   11.40416183496123
C         2.34120364908615    2.11481887506014   12.16358016215382
H         1.33591958269792    2.47416170922085   12.09509586811726
C         2.77649930500748    0.85472238990550   12.63723048044540
C         1.93306352034795   -0.27062238086203   13.16111208731798
C         2.80532221900497   -1.50011488517011   13.41898281793005
H         2.20285800030769   -2.30721487659415   13.82897034484848
H         3.59955904200468   -1.25960178248146   14.11967221070171
H         3.26368175358439   -1.83974348818862   12.49427251646033
C         0.85076957685130   -0.60984670918522   12.12977501587581
H         0.25295208903594   -1.44769826119582   12.48112287581652
H         1.30302516271140   -0.88302149117574   11.17906105409052
H         0.19138795756864    0.23821587640900   11.96520636659597
C         1.27396316850707    0.18111006244019   14.47096839474227
H         0.63438927555925   -0.60893683135136   14.85744309648617
H         0.66811064779440    1.06983686673998   14.31146860087564
H         2.03105173745358    0.40856959639029   15.21826519935458
N         8.66923606436987    5.59944274441087   11.48975712102530
N         9.51385157841279    4.60622756807040   11.43340947027953
C        10.65705562059360    4.97927083525721   10.82411885195613
H        11.49583634885138    4.31914475029930   10.70211422224121
C        10.51507229300254    6.31164433441723   10.48228012314737
H        11.24327176117401    6.92619063660714    9.99269214733348
C         9.22912215109405    6.66280988436150   10.92714276975670
C         8.46434434363607    7.94990967479995   10.82771075122418
C         9.36658860700739    9.08097975324635   10.33235169224124
H         8.80210845642689   10.00953942193810   10.27848379747624
H         9.75359822727983    8.85852433263038    9.34072378537973
H        10.20550350329848    9.22578337873406   11.00976425083039
C         7.30216411859851    7.72880077445598    9.84957009251240
H         6.69295288881603    8.62761343369703    9.77431412518611
H         6.68263361316828    6.90549733977479   10.19894243393083
H         7.68024016606074    7.48072445823422    8.85953313957629
C         7.89657994510512    8.29303346194855   12.20947351751430
H         7.30986551396687    9.20831172510616   12.16224245624769
H         8.70116315363471    8.43284989074218   12.92963212456415
H         7.25896096734951    7.47904678775571   12.54422633869632

