67
CSD_code = EJAREM | q = 0 | S = 0 | Stoichiometry = C22H33BrN6O3SZn | MND = 4
Zn       19.27009920573656    5.41221882637243    3.62085338967828
Br       20.78005827898260    3.85647127646866    4.12645165946739
S        16.84457971120747    5.57899145784456    3.88588767325991
O        17.49739345539652    4.63266189096531    2.98753302374601
O        17.59787328864197    5.67278265287361    5.12250588334860
O        15.42623212303486    5.49696659632755    3.95960903134905
N        19.01017577615226    6.34145123014034    1.70470273423932
N        17.80867735381513    6.94609109856502    1.75796628527377
N        19.40133327523930    7.37551033181344    4.21573106736969
N        18.26349462732033    7.96689249710111    3.82520489937392
N        15.80015375565272    8.88615180098525    1.95499053786217
N        16.08879928398872    8.06492941705427    2.97937156514939
C        17.23467418433848    6.98197511165434    0.54166296721778
H        16.27188879380956    7.42254721168747    0.38958456885451
C        18.12486143347800    6.42175891388879   -0.33833962009375
H        17.98733026957267    6.30814455280644   -1.39255133524399
C        19.23097264462387    6.02875129956203    0.43089875151096
C        20.48441523484975    5.35100135326222   -0.04475813672437
C        20.70259857887605    5.64109609150870   -1.53412068281011
H        19.91409504694903    5.20254804477599   -2.13949918567848
H        21.64862688008932    5.21005037377845   -1.85137696958150
H        20.73337015703063    6.71236723414831   -1.71986955342577
C        20.31477106738219    3.83907798370991    0.15626360294504
H        19.47740927605515    3.46878468091624   -0.43082662313741
H        20.12940830043546    3.60579017889605    1.20074594244138
H        21.21811959739020    3.32080796565701   -0.15370416870821
C        21.69466940688354    5.85583234024496    0.74527675847262
H        21.79725872107220    6.93343037820258    0.63871294989691
H        22.59987080958730    5.38161847839914    0.37628904094000
H        21.59854952147708    5.61800320050633    1.80034562617600
C        18.18737574735304    9.21852433541349    4.31742472984226
H        17.36263154517277    9.86956970999697    4.11120692298434
C        19.32429391707034    9.43638464917007    5.05144650199424
H        19.57791675583299   10.33271546197403    5.57591947308971
C        20.06670853800833    8.24812572460328    4.96678213242517
C        21.39128672303013    7.94208243136991    5.60694569747436
C        22.37969222196726    7.44862840768295    4.54485908682599
H        22.04006258094385    6.52119580397466    4.09535949246857
H        23.34750842623185    7.26358808407892    5.00215666343102
H        22.50176873759317    8.19344021334986    3.76151813100814
C        21.17945147895725    6.86490102462047    6.67833470103975
H        20.52184813923684    7.23369161576089    7.46238258062175
H        22.13353968570184    6.59137932833637    7.12024672034981
H        20.73366992514019    5.97153902251298    6.25173445257819
C        21.96042866925571    9.20122589872870    6.26863015782496
H        21.30401986221576    9.56004609766321    7.05730906303630
H        22.10358140604166    9.99429196076027    5.53837517620877
H        22.92473650890114    8.96881292011751    6.71271479863282
C        15.20879908934274    8.22867018814959    4.00257924773078
H        15.29521994783646    7.66723557702578    4.90835759611461
C        14.29972716637301    9.16488643528569    3.59245095576076
H        13.45753210168046    9.52330726133343    4.14499840216894
C        14.71015835460190    9.54453689264912    2.29545749184247
C        14.10497577185106   10.56051996156400    1.36912694676768
C        12.67996430204171   10.90430459976771    1.80463921364081
H        12.06607773678222   10.00784604006430    1.85060725839710
H        12.23264991637052   11.59133775159993    1.09004979790146
H        12.67598629756246   11.38128457819729    2.78165684534335
C        14.09043366376575    9.99480121742720   -0.05467819594627
H        13.48449470766933    9.09253736385605   -0.09724822865440
H        15.10131717041254    9.75064610739217   -0.36913741340259
H        13.67378564075388   10.72510974627474   -0.74429871094010
C        14.97859019535629   11.82235498042005    1.40947439011170
H        15.01196721020130   12.23247042155516    2.41697026613170
H        14.57312234752385   12.57902692315775    0.74213702074972
H        15.99244402517473   11.58572600313967    1.09613364336073
C        17.26597342698333    7.27995079091484    3.03743530791190

