36
CSD_code = EJASIR | q = -1 | S = 0 | Stoichiometry = C10H14N2O9V(1-) | MND = 7
V         2.87537497621141    0.16776941548776   10.14488912889031
O         1.85187892224259   -0.92819525409794   10.48773524987295
O         2.04472875903694    1.63616960923487   10.66438991447635
O         2.98103673293179    1.25766388402446   11.50596073381728
O         4.46766141273720   -0.65195153496037   11.00716120513953
O         5.78014081167226   -2.43815284127843   11.06267761718821
O         4.04673180231589    1.28526268340799    8.90932319306106
O         4.77752709145081    1.40873811112955    6.80975249038548
O        -0.82107361340342    1.72334063426023    6.92469521584210
O        -2.15755481146527    0.27719283746223    7.87287043098386
N         3.55056288797249   -1.25752313245143    8.66940898515289
N         1.41763590637545    0.59659716990022    8.26711875371485
C         3.96237293308574   -2.39188915484049    9.48305018120706
C         4.83212468610111   -1.80075426498497   10.63131484197873
C         4.68170425398525   -0.73576669938895    7.91446018596337
C         4.50865836868057    0.81129349231242    7.84812412226082
C         2.43131905736918   -1.58517392312458    7.79441915725398
C         1.81927522858691   -0.31777794597310    7.19821705870466
C         0.06915366530079    0.31669944061287    8.74317885808978
C        -1.05032144586229    0.74873103355943    7.81354645120981
C         0.48430794075896    2.25921703735934    6.71456130210519
C         1.45426662087972    1.99587032615357    7.86044070947130
H         3.08315303878970   -2.83839922844506    9.95745061430478
H         4.50937578738109   -3.15168995901664    8.90525792630301
H         5.61203983469498   -0.92430923809310    8.45846827470361
H         4.76043296463381   -1.17483739003368    6.90979661448333
H         1.68006740639238   -2.09587075632306    8.40249334201159
H         2.75230590003136   -2.25841955477744    6.97985242037587
H         2.56301918306813    0.17986340956249    6.56977891412389
H         0.96182988033732   -0.59917987675012    6.56412497933884
H        -0.06092811463868    0.84312568149795    9.69822581983989
H        -0.04344509319897   -0.74551224229580    8.96907105912838
H         0.86142080831318    1.82969383012398    5.77786258721558
H         0.34339133853576    3.33344593879408    6.56446554991911
H         2.46193433309238    2.27182240424145    7.54580100835050
H         1.20019054560321    2.59330605771122    8.73965510313215

