52
CSD_code = EJELOW | q = 0 | S = 0 | Stoichiometry = C18H30NOPPd | MND = 4
Pd        6.98144348954339    6.09608334098058   10.32623893496079
P         6.74805054299723    6.27330731618502   12.55509944145551
N         7.30430295222659    5.85147719566941    8.30248245445367
O         7.77869353736713    4.10898553206670   10.65722320243270
C         7.94652123027970    3.27064543024565    9.73061304194403
C         7.94901120606053    3.52453588078177    8.36393160653143
H         8.18753278276309    2.68835088073181    7.72281806433124
C         7.75311334797489    4.76064772124414    7.72852913303844
C         8.23577800905009    1.83767068268461   10.15398024433597
H         9.21837245414111    1.53321061012984    9.79983371381568
H         7.49500201172231    1.16421991970050    9.72831998159922
H         8.20959090896229    1.76190430996598   11.23838287065226
C         8.09299840460924    4.80345897538385    6.25469510818724
H         7.18028154825239    4.78323583775888    5.66120079249156
H         8.70347145538515    3.94975989140907    5.97382450064004
H         8.62712917412758    5.72025461903135    6.01064562064155
C         7.28716326234908    7.05767044041805    7.57361195273740
C         8.36210415519375    7.94530899548700    7.73558109699489
C         8.36378290918997    9.13984891992533    7.03615885553573
H         9.19409452257745    9.82182911485690    7.15927822171158
C         7.31962187525164    9.48183525440228    6.18731281386653
C         6.24760748631461    8.60966726813431    6.06885720734058
H         5.41516773486608    8.87639045454876    5.43202174124395
C         6.21145511933203    7.40215212392348    6.74951280542681
C         9.46264464782680    7.58907086089534    8.69266046940027
H         9.02535026351958    7.26243632788629    9.66091451909807
H        10.11743117418120    8.43994598339528    8.86515110517571
H        10.05978061741312    6.76113650007006    8.30629998632491
C         7.34628276030208   10.76498484302220    5.41088792380642
H         7.67558655270480   10.57811278964782    4.38788563613102
H         8.03183116223886   11.47819628141322    5.86228320537169
H         6.35439102939379   11.21007702254500    5.36613309916248
C         5.02066052667787    6.49521612345016    6.63358017271777
H         5.09591210046538    5.86132363604397    5.74913279085514
H         4.10603769695238    7.07864125787471    6.54618044613574
H         4.95005385403600    5.85079936581139    7.51115569892025
C         5.98525382056650    7.88620865713016   10.08146894482988
H         5.26158135937829    7.78265497355550    9.26742899450788
H         6.68556318690795    8.68513548219488    9.81819727986090
H         5.43478907374649    8.20378439726496   10.97351040756186
C         7.65258618439058    5.02351820790335   13.54381633472630
H         7.47300882202295    5.16734084068837   14.60897865848431
H         8.71725855355763    5.10621290953681   13.33200136943923
H         7.32282777416510    4.03301681395081   13.23860927187945
C         5.04113057882160    6.05099299795444   13.19520729651557
H         4.66745239052033    5.08704918566915   12.85074458977365
H         4.39577010812319    6.83253119359766   12.79905445292040
H         5.02842380735835    6.08162164941684   14.28415789636377
C         7.27101940485619    7.81967600101710   13.39982329188939
H         6.71995517727134    8.66655927558831   12.99873489865923
H         8.33199994613553    7.98012816037899   13.21487783888680
H         7.09592730593996    7.74417754645069   14.47207001422570

