51
CSD_code = EJEMOW | q = 0 | S = 0 | Stoichiometry = C25H19AgN4O2 | MND = 2
C         3.03022493862211   20.03680833123851    8.22734108877134
H         2.40519593460470   19.78499119247214    7.37252983775797
C         3.96447497435720   21.04501668375604    8.10873152074674
H         4.07921046755958   21.57244820684597    7.17444310224438
C         4.75635340922066   21.38402179910189    9.20711800037256
C         4.59706755784911   20.71043344858671   10.41772722639875
H         5.20735814437794   20.98213167471326   11.26615290695949
C         5.71943583489552   22.41521312091665    9.10224307841881
N         6.50405815186272   23.24743472747678    9.03013826997759
C         3.65964703100965   19.70104532766156   10.52067994441944
H         3.53302428473908   19.18770096430866   11.46328602842843
C         2.87221171424008   19.35478580112092    9.42928074863629
C         1.86158517668334   18.23745343352629    9.52244267939509
H         1.80264208296820   17.85562755055460   10.54611153139303
H         0.87290610248947   18.60788756508568    9.21793961840844
N         2.20519616751803   17.15615240774752    8.63208262196965
C         1.59376602156669   16.90996978166984    7.45083685903801
C         3.23573484074398   16.26864199881290    8.84204328863496
C         4.14089431162032   16.10655469672276    9.88011630869241
H         4.13635940602607   16.75529454445039   10.74058008607421
C         5.05683565975723   15.07895562993833    9.76311853304920
H         5.77699564265788   14.92141087421010   10.55089534797530
C         5.07655147018593   14.24056729935992    8.64956827247641
H         5.81156781247434   13.45233709793321    8.59975541614649
C         4.18103694120795   14.39666473955064    7.60920997640257
H         4.20714637962065   13.74920088910869    6.74807878351318
C         3.25539623806106   15.42339940558907    7.71974794575455
N         2.23532620628229   15.85283712704017    6.90195491008775
C         1.92804777075222   15.28809130318464    5.61098179519236
H         0.93232503694848   15.65391348485424    5.32401622365557
H         1.89985982476205   14.19747923805573    5.69362222137798
C         2.94087729688358   15.71628201322608    4.57670635637138
C         3.07221643233622   17.06536305368752    4.26454410928151
H         2.42715319173062   17.80015134550895    4.74363063748010
C         4.00409611125396   17.48571959493524    3.33835341942351
H         4.09772133659521   18.53359693045393    3.09884198399811
C         4.82069428800882   16.54612212825669    2.70685901350227
C         5.78032982323885   16.96175311523394    1.75384161308173
N         6.56343128244193   17.28697237941018    0.98295417035706
C         4.68873404741428   15.19106560934544    3.00852334462751
H         5.31789814591317   14.46797921268078    2.51110407546567
C         3.75370775577395   14.78547632286213    3.94116275801805
H         3.64885552012995   13.73350508045576    4.16562268719473
Ag        0.44987471025271   18.33808625117890    6.34694679504036
O        -0.80888243957837   19.73727243190545    5.20717854666404
O         1.33943113504254   20.15176633965025    5.01101833095830
C         0.14758365509174   20.40375068787961    4.73965144904237
C        -0.17439155662095   21.56775435642595    3.82165328496616
H        -0.43899816874608   22.42751995760060    4.43460360602005
H        -1.02469277955651   21.31705101780179    3.19364191323930
H         0.69192467659415   21.81604182585822    3.21538773292866

