57
CSD_code = EJEROC | q = 0 | S = 0 | Stoichiometry = C24H10F18N2O2Pd | MND = 4
F        19.26417137173553   27.93876047262519   -0.57866709752281
C        19.42701051506073   37.57747020457652    2.38012340743525
H        19.05464582429519   36.55834458886643    2.37896381547810
C        18.57769769908622   38.66488776492783    2.37133055236268
H        17.51044560941613   38.51684653757949    2.36306691196016
C        19.12142420647981   39.94869461132303    2.37254658639432
H        18.48055747294188   40.81609548320717    2.36501940199850
C        20.49352602595980   40.09197895807085    2.38374294077690
H        20.93936338029519   41.07305581036797    2.38494972263107
C        21.30439333091765   38.95479907215827    2.39342022242257
C        21.31768695163261   33.61267092323603    2.39691821135570
C        20.63644651008880   32.40005575769946    2.39898143230514
H        19.55817279160699   32.40646095603180    2.39970274839497
C        21.33049892269880   31.19331791587275    2.41105447704877
C        20.47974908535198   29.95110256896902    2.38774429417792
C        20.11712700287138   29.54590774636829    0.91764345033558
C        19.57501878954095   28.10037872419239    0.72644008806087
N        20.75761800402825   37.70983598211429    2.39059752705873
O        20.70157414886940   34.77491067819920    2.39102938086511
F        20.52258005958485   27.19536031603652    1.01309342019094
F        19.17590057578451   30.40923433458926    0.47435962819359
F        21.17231199157325   29.70629944420231    0.09970493860493
F        19.28613918175361   30.16453747461745    3.00507804458761
F        21.00445963597366   28.88887778007316    3.03733822619281
Pd       22.03039032788993   36.24478646754327    2.39971123275554
F        18.56668703540661   27.56833460900723    2.83170963824450
F        17.75889088049277   26.63170219392015    1.08078915951369
F        17.37386145235278   28.70900693239080    1.44986700024332
C        18.29648141571043   27.75604648714186    1.54818460480013
F        24.79758984232540   27.93913302250215    5.37810148738511
C        22.74288686797260   33.61262912798917    2.40315640745722
C        23.42405937240461   32.39998200877727    2.40100293939360
H        24.50233419135574   32.40634412821276    2.40025719273898
C        22.72994779526902   31.19328036130706    2.38882054822583
C        23.58069180306977   29.95105627044377    2.41197739584019
C        23.94366914311805   29.54596436267630    3.88200867510019
C        24.48640049590256   28.10064861933710    4.07306551417073
O        23.35907450750677   34.77482633347697    2.40912819439826
F        23.53912925988645   27.19526527649716    3.78659858971337
F        24.88460574849796   30.40964605739078    4.32521674465954
F        22.88851343215255   29.70588386239283    4.70007366589256
F        24.77414856359082   30.16448468195611    1.79433371696013
F        23.05586199597687   28.88876093570373    1.76260029593416
F        25.49438930714959   27.56868511050121    1.96763176001015
F        26.30321885254999   26.63286313438476    3.71850930855948
F        26.68704456999488   28.71028446583621    3.34887034551153
C        25.76489303286796   27.75682272659217    3.25103165748957
C        24.63396549365761   37.57707364235020    2.41980292608164
H        25.00618310534601   36.55789171584785    2.42103379804316
C        25.48344192197802   38.66436563647224    2.42841505467816
H        26.55067506051600   38.51617036862867    2.43662195226617
C        24.93990904804788   39.94825520621029    2.42695632370191
H        25.58090395793688   40.81556300267417    2.43424548686174
C        23.56782783546505   40.09174413747846    2.41570939152078
H        23.12213913122985   41.07288807347355    2.41432379355306
C        22.75678991582447   38.95468549991155    2.40622046435836
N        23.30337554899803   37.70964143505132    2.40924240262245

