57
CSD_code = EJERUI | q = 0 | S = 0 | Stoichiometry = C24H8Br2F18N2O2Pd | MND = 4
Pd        3.99430512245135    4.97639011170971   16.22155790747860
Br        4.54475364553898    8.96246395289331   21.44564279493257
F         3.13221985537434    4.12949697529138    8.88352080331862
F         3.88436317917244    1.76071093256730    7.66516954858431
F         5.23439205907524    1.73425317463135   10.29606485377827
F         7.34273318225135    1.67711526197514    8.26676391395993
F         6.36313453529386    1.13180455154242    6.43506280525313
O         3.76916519215502    3.67120023881787   14.75586971596089
F         6.06132392714318    3.62753476651832    9.70188919579367
F         5.24084413627334    3.38472479040269    7.20007967150842
F         2.81212126258941    2.43299485051606   10.14894632275566
F         5.87250702246540    0.10729413732327    8.25645974180870
N         4.18925455891779    6.23365408546334   17.68683255387393
C         4.10010025469077    5.69285147050230   18.93407364318544
C         5.02240968584912    2.80036663412105    9.49279235722640
C         3.72443180889088    3.60740786131284   12.37891079097230
H         3.51122256935855    2.55034563020347   12.38475254425822
C         3.84302429379383    4.29270107172960   11.17473162715584
C         3.86611393232047    4.27567578686708   13.59178714972976
C         5.05216511991711    2.33177324132659    8.00911564517379
C         4.20461721655914    6.49132113675579   20.07478589767719
H         4.13226841175520    6.05930298468869   21.05911029116956
C         3.66765224635014    3.46309971303489    9.92828195268387
C         4.37969288950433    7.55278217317471   17.55829855190824
H         4.44239714054656    7.92432782363494   16.54071364255968
C         6.18438019779301    1.29261431260287    7.74127483331590
C         4.49098067296113    8.39767508517883   18.63970895134567
H         4.64311859271224    9.45522637691011   18.50089528459803
C         4.40064684760056    7.84954319034781   19.92300468135146
Br        3.44799403816108    0.98890675829237   21.44499902172588
N         3.80023950099578    3.71877382739084   17.68664500937461
C         3.89033690575809    4.25924242653951   18.93396245174332
C         3.78684656705241    3.46044752890070   20.07454305359703
H         3.86011756372945    3.89219118753651   21.05892208316836
C         3.60976436123989    2.39966978907200   17.55790780473996
H         3.54614073436120    2.02840270571268   16.54027630576753
C         3.49944478270159    1.55447109659007   18.63917911278720
H         3.34714535441941    0.49696078855545   18.50020534245800
C         3.59086632338622    2.10224600729462   19.92255019914402
F         4.85804082729505    5.82351130207376    8.88406438825768
F         4.10638341476504    8.19193525329977    7.66483389648729
F         2.75456567997044    8.21869325263748   10.29474400880681
F         0.64753568649334    8.27497867962031    8.26379772069306
F         1.62845862574578    8.82016204251538    6.43276688999008
O         4.21898736733425    6.28179988046474   14.75596998250499
F         1.92824578977694    6.32520067660982    9.70041095882842
F         2.75054451066031    6.56758001198828    7.19906582227602
F         5.17695331851912    7.52025718267191   10.14945652274667
F         2.11746453967398    9.84508295499024    8.25436592863857
C         2.96720769421988    7.15243651456442    9.49183519894822
C         4.26396261154169    6.34573209875921   12.37901031407464
H         4.47718775133106    7.40279040858677   12.38492106238545
C         4.14574373448189    5.66045594993883   11.17478482299186
C         4.12206798089593    5.67741818334434   13.59183808623133
C         2.93843437458768    7.62072147494046    8.00803789630687
C         4.32175685411238    6.48996721369849    9.92836152186279
C         1.80622354746914    8.65961248134107    7.73914692015132

