81
CSD_code = EJEYUO | q = 0 | S = 0 | Stoichiometry = C28H38N8NiO6 | MND = 6
C         6.23298736206282    2.21919794945001    6.49410795393293
C         8.20180042851433    3.02358154833882    7.47396591000294
C         8.25905861456893    1.85327133824669    8.45499984915999
C         7.31341527136883    0.71782872714685    8.13089283441752
C         7.87423089570550    2.40787029173590    9.84727858343176
H         8.00129542233000    1.60828878144710   10.57990808582666
H         8.56972951461099    3.21526320035067   10.08748665498852
C         6.44329168455235    2.93076707705203    9.90721209976531
H         6.24838963555901    3.36948641787835   10.88362264617017
H         5.72937064204458    2.12486378742403    9.74843038813335
H         6.27694302258104    3.69508929680395    9.15022975450695
C         9.69600901268654    1.30069661829899    8.50324076542588
H        10.36473136450547    2.11237325255435    8.79359706784231
H         9.73848520466653    0.51655411474726    9.26057384082052
C        10.13343778365088    0.73332348688680    7.15760685005629
H        11.15985167851814    0.37881913527827    7.21706984863550
H        10.07768042703407    1.49680552361207    6.38361120139237
H         9.49895485685817   -0.10201759095134    6.86822693416763
C         5.48428055384140    6.10725012252168    7.75765274480963
C         5.17945154337195    6.44172793114267    9.07193997439381
H         4.15528977263771    6.41064236938467    9.41034439796250
C         6.20277547391883    6.80490884978664    9.92910662000380
H         5.99403078716698    7.06006581700149   10.95721816709848
C         7.49732572751601    6.83721574723654    9.43605781029580
H         8.32541863567533    7.12334741421829   10.06396692164803
C         7.71711085571083    6.49027020377481    8.11369812725689
H         8.71559877089272    6.51585304868769    7.70536370171719
C         4.42039555013397    5.73858152551797    6.75927122130549
H         3.66965636313147    5.09681398412139    7.23575397400453
H         3.92127099783696    6.66595601806388    6.45063449807821
N         7.16580217534735    3.16949925703888    6.63049442264735
N         6.39764250092892    1.00006869320334    7.16062516939337
H         5.70713611048599    0.28870762851635    6.94649189277613
N         6.73807776713540    6.12224042724622    7.29561223326817
N         5.01276363349333    5.08719511647938    5.59344867037111
H         4.64627480287731    5.49938474058415    4.71615640611534
H         4.85107323375779    4.06602387305354    5.60319007352926
O         5.23099040227787    2.34297793508673    5.79515426432412
O         9.10745157274191    3.85851299759321    7.52065033453457
O         7.32952243514472   -0.35360704163847    8.69203688685530
Ni        6.87087050036159    5.21138105457189    5.42564298891156
C         7.50872262330166    8.20357168531145    4.35722247656542
C         5.54005632563294    7.39906893243229    3.37716340666884
C         5.48274192464550    8.56944670422544    2.39621627510926
C         6.42837792086601    9.70489603635536    2.72033678946173
C         5.86759100454795    8.01485210044366    1.00397914048122
H         5.74052544959490    8.81444039424117    0.27137595650966
H         5.17210265157273    7.20744091490546    0.76379422670871
C         7.29854456005579    7.49198000203974    0.94410067821850
H         7.49346428816882    7.05323553562789   -0.03229469164689
H         8.01244756568963    8.29789932966020    1.10289308532543
H         7.46488667729486    6.72768698511475    1.70111463233253
C         4.04576860003660    9.12203092968632    2.34796221096814
H         3.37704977678664    8.31035985255662    2.05758285222424
H         4.00328094297328    9.90618132145509    1.59063031705956
C         3.60829235424681    9.68941591016661    3.69357429018789
H         2.58187977067361   10.04391942835073    3.63407998434122
H         3.66401007312426    8.92593585225725    4.46756955147136
H         4.24275721142271   10.52476479395471    3.98297096855393
C         8.25746547648265    4.31550721949849    3.09363054115567
C         8.56228913446144    3.98101261193428    1.77934657667538
H         9.58644727757203    4.01210876717684    1.44093307360281
C         7.53896343611896    3.61781288784740    0.92218987370841
H         7.74770564312228    3.36262668738782   -0.10591426741010
C         6.24441799726400    3.58548710529929    1.41525170935698
H         5.41632628836003    3.29932414731870    0.78735564811303
C         6.02463987401233    3.93244724333274    2.73760766490942
H         5.02615768585460    3.90684220035043    3.14595446495987
C         9.32135326479616    4.68423511195592    4.09198808750271
H        10.07202947799946    5.32606125264673    3.61548537659858
H         9.82055902466059    3.75689590035242    4.40059884657397
N         6.57594490806486    7.25323805026649    4.22078153053179
N         7.34409880938136    9.42268259500806    3.69065847922006
H         8.03457589106032   10.13406295622246    3.90482719429906
N         7.00367258133062    4.30050682631875    3.55568113116698
N         8.72897864113880    5.33557678489737    5.25783200842694
H         9.09545874534190    4.92335552002162    6.13511339850179
H         8.89066812294964    6.35674885631847    5.24812365839240
O         8.51069164400994    8.07981331423829    5.05622107529566
O         4.63424403033495    6.56429468504767    3.33066227127503
O         6.41223933703471   10.77635189821784    2.15922673693528

