63
CSD_code = EJEZAV | q = 1 | S = 0 | Stoichiometry = C22H31N6NiO3(1+) | MND = 6
C         9.03255546950294    3.10931351132554   12.60729133461527
H         9.49395467958486    2.11969697649010   12.65757902565096
H         9.59406681104223    3.77970941403616   13.26478924553348
C         9.11951122608425    3.62839570454410   11.16650043972622
H         8.47367082175449    4.50516826743462   11.05364947988602
H        10.14386195830366    3.91628059253764   10.93607138724417
C         8.65748403888275    2.56505260329718   10.21592304645234
C         9.52684379523748    2.04307962055585    9.26342213505443
H        10.52653669719741    2.43975006445902    9.18523750031712
C         9.10147708634646    1.03356847191222    8.42039861911321
H         9.75968076902596    0.62892122046910    7.66794659646194
C         7.80896526734961    0.55509736035398    8.57048180243982
H         7.42827913197352   -0.23703434333759    7.94714773330094
C         6.99725577721398    1.12294416471747    9.53444168303733
H         5.98063200172562    0.77585117410263    9.65245761387727
C         5.46005099240779    5.31624840262540   12.56873839643424
H         6.41721334821783    5.53120245086865   12.10706208301015
C         4.75929053795586    6.33059388536636   13.18938761742324
H         5.17350094044496    7.32429343878674   13.23360382722491
C         3.51952538472240    6.03654190004178   13.73758561970595
H         2.93375606126571    6.79754949923998   14.22847330658461
C         3.05383134056415    4.74132555672155   13.63563862647053
H         2.09544119992507    4.47388609609093   14.05131922584508
C         3.80700829206410    3.76319635598413   12.98356514654201
C         3.24048285287260    2.38098312728570   12.87226328998317
H         2.98114036716820    2.19034948608920   11.82617076175051
H         2.32638629307007    2.32599642692321   13.46182887432306
C         4.19881623758269    1.27094272136221   13.31109318881556
H         4.70538695051716    1.54658631377973   14.24189789409718
H         3.60551376185518    0.36712183753900   13.50274441637718
C         5.56463612155523    4.44966155923623    9.28227412520227
C         4.97658549990910    5.06112230787795    8.03248338545288
C         3.84276322717193    4.25813009452018    7.42198436348697
C         4.02425899068357    2.63049279704884    9.27356544311522
C         4.42853748340925    6.45937276034108    8.39936601792983
H         5.25431483044884    7.05477614656665    8.79229151269822
H         4.06196490958969    6.92799914738602    7.48535258640166
C         3.30214669428885    6.39321244149269    9.42468042893221
H         3.63015006073128    5.89490730950878   10.33674667518192
H         2.44552919422084    5.85477981803390    9.02475711482100
H         2.97808663571660    7.39815476643628    9.68261456978160
C         6.09573070879497    5.19768552808424    6.97789480687280
H         5.66880058770722    5.66807347189118    6.09159801533847
H         6.87193669053584    5.84757203234247    7.38410076840885
C         6.69918247959282    3.84944541936252    6.60093431426886
H         7.13254919470253    3.36035427561297    7.47288622810244
H         7.48472739779417    3.98926041471664    5.86307907292233
H         5.94487104616453    3.19258974170387    6.17231907363739
N         7.62547817680459    3.01971991923706   13.02846279636211
H         7.39700496797714    3.82651601995454   13.60670003867320
H         7.47964770984577    2.19528635718580   13.60660559213476
N         7.40427924225219    2.11131117530339   10.33455588183112
N         5.00126521079445    4.06287039466717   12.45852817600207
N         5.19111062810677    1.05050042796095   12.25871172673876
H         4.66209194753981    0.81099448185254   11.41300695238613
H         5.77267464529573    0.24949360129849   12.49356788831217
N         5.02927008956168    3.34307150214086    9.82801211771292
N         3.47625840268616    3.11866225459968    8.10269587270034
H         2.72315907248530    2.56957807966272    7.69964792175444
O         6.54067832650965    4.94128181704890    9.84856531948727
O         3.28152550137393    4.57637576573217    6.40694509310486
O         3.61411128828338    1.58999336309410    9.76277937615184
Ni        6.19165294561070    3.00094250649907   11.45247682679482

