47
CSD_code = EJIBEF | q = 0 | S = 0 | Stoichiometry = C22H21MoNS2 | MND = 12
Mo        7.51736206000104    1.66479373222414    5.42152017508199
S         6.79263775173581    1.93973035431914    7.68550309818679
S         8.14882010476096    3.95695880057538    5.75170819195161
N         4.00739815466294    2.86518437240852    9.47021498914888
C         5.07007716789719    3.28686050834935    9.49161644957259
C         7.21534368809521    3.20307483089175   10.63531549553489
C         6.17712631613321    5.36910274343855    9.86949253047067
C         6.39471712924801    3.88847638384942    9.53194074530236
C         7.02149497534718    3.61357288950030    8.17470594911209
C         7.65092370052827    4.46628493746420    7.35923631074522
C         8.05571692425674    5.85653016264819    7.62584725561165
C         9.07237360339139    6.12639962204355    8.53710858314855
C         9.49091164453545    7.42690913806826    8.74990160894837
C         8.90329173909224    8.46915300278153    8.05255056061920
C         7.90373604362113    8.20478595899908    7.13140903953079
C         7.48719073030776    6.90501916904020    6.91165996295463
C         9.77936772223068    1.45053281386544    4.90352248650322
C         9.18485853861380    0.39657614981447    4.19079293616689
C         8.60358815349421   -0.49620721204777    5.11692897279708
C         8.84012319928884   -0.00659076012310    6.41013769203339
C         9.57829295823158    1.20196559594707    6.29086142546369
C         5.45415092036719    2.47463625603069    4.89426954624464
C         5.27934047264632    1.08128971768761    5.12685506109976
C         5.93676551242834    0.38994802957840    4.09710375571882
C         6.52490101074853    1.33632692062477    3.22908400384067
C         6.23255428525663    2.62067176081094    3.71282211784405
H         8.62243025589884   -0.52041505722283    7.33507467740407
H         8.15659088716080   -1.45039823195406    4.87953937589346
H         9.26121369668117    0.23623306910967    3.12508457003413
H        10.41197105227528    2.22250301047818    4.49086701540450
H        10.09312216140689    1.70834681812398    7.10192310730093
H         4.63330690171707    0.65055661917416    5.87774318992193
H         5.89695890827943   -0.67682520535995    3.92973555247045
H         7.00988765563522    1.11503433177444    2.28936145725167
H         6.44054188915943    3.55357468197768    3.20931142251897
H         7.31956657489145    2.14170538068550   10.42003843513566
H         6.72516140751798    3.32048582587950   11.59979193447657
H         8.20492854714719    3.65257373257496   10.68404738235252
H         5.53502134363820    5.44393687034494   10.74638867498751
H         5.69540108717886    5.88825251643545    9.04423664353585
H         7.12124395311039    5.85906797754452   10.08774110740163
H         9.53796002208759    5.30888464540657    9.06980443457119
H        10.28094152678555    7.62741677367233    9.45935978195382
H         4.89464131091332    3.26587957888925    5.38489274079761
H         9.23034652513135    9.48464006096324    8.22084098007160
H         7.45021528509897    9.01441601460360    6.57841596881998
H         6.71528450135574    6.69144470806905    6.18649260404792

