47
CSD_code = EJIBIJ | q = 0 | S = 0 | Stoichiometry = C22H21NS2W | MND = 12
W         6.97686752139676    1.56719723353215   12.74755301744518
S         6.44682281866847    1.89599134711301   15.07527714020357
S         7.81943173977376    3.82281612113977   13.02872361985234
N         3.38722540995013    3.14617277055892   16.06258708043010
C         7.89338661492586   -0.62346410731963   12.31962061042930
H         7.35304432346318   -1.52208728977994   12.05484408142667
C         4.43654492941843    3.49820666923793   16.35365780237960
C         8.52323125771530    0.26110646378709   11.40501505614070
H         8.53840199234848    0.15136235708251   10.32956794524072
C         6.31802805505279    3.27089616775702   17.89782168245372
H         6.37664563139509    2.20053616873307   17.71386715541471
H         5.67272248579607    3.44668699867799   18.75621612438275
H         7.31511748515339    3.64463024094247   18.12089873576841
C         5.61827331274811    5.49221410146485   16.95131638516142
H         5.28336786752693    6.03192457975268   16.06877886287707
H         6.56123689586274    5.91615347115699   17.28358406014831
H         4.87846605896988    5.62676370356000   17.73977888074669
C         9.22135349257139    1.23369494074438   12.13673377254222
H         9.89197950861567    1.98054949299275   11.73537694084786
C         9.02421683606570    0.95793527344567   13.52843639025702
H         9.59249266996345    1.39900069829938   14.34230943203753
C         8.20246467473462   -0.20980385498638   13.62695334555538
H         7.98032243611865   -0.74638198801854   14.53875731606698
C         6.57161356470751    3.62731051229625   15.42141064707204
C         7.21477317507594    4.43541830782865   14.57113089826819
C         4.54742274419717    1.92801227957074   12.76884270149504
H         3.91175350408540    2.13042229502115   13.62279427815633
C         4.88452797617762    0.65441191763933   12.26729044910237
H         4.47581093844873   -0.28308629947455   12.61640363179345
C         7.56263760683454    5.85376590295717   14.75281178194947
C         8.49072083010984    6.22574148630239   15.72123456675726
H         8.92486189740132    5.46674687196405   16.35690453779019
C         5.65069717489292    0.84518541820155   11.07389630998000
H         5.84254681654617    0.08322059596583   10.32742328692752
C         5.83995347449709    2.24867259740938   10.89043209701111
H         6.23563156796131    2.73084776423918   10.00749490197335
C         8.86358801933216    7.54994778659858   15.85837401860516
H         9.58476843601275    7.82926216737680   16.61310286940866
C         8.31878524990019    8.51556507060239   15.02861009235284
H         8.60945767750469    9.55001410189255   15.13823424608212
C         5.14598832123626    2.90405366829122   11.94489332977411
H         5.00019393989078    3.97359986880220   12.03718476764560
C         7.40947868488916    8.14929249950429   14.05061908203964
H         6.99032974954956    8.89793278399309   13.39407443509280
C         7.03993087949124    6.82513766612666   13.90631747375508
H         6.33946029669843    6.53423489874985   13.13677696719417
C         5.76862345623245    3.99488827821066   16.66106719194584

