56
CSD_code = EJIDEI | q = 0 | S = 0 | Stoichiometry = C24H23BClN2RhS4 | MND = 8
Rh        4.89448992160523   -2.92122279594347    3.56234223303078
Cl        4.90068456222688    0.00591620454194    2.07371526772447
S         6.55275058087862   -2.91909117853225    5.31129597083377
S         3.21050584114721   -2.07787933056611    4.96181904430282
S         9.24992925086005   -1.70090930362596    4.81220938326060
S         3.40120531687768    0.35474557306972    6.70241113902308
N         5.02531804144205   -0.16443804952043    4.75839812256994
N         7.09338967977264   -1.01223008928550    3.55236821018132
C         3.95311312824382   -0.65220143974609    5.39379716055671
C         5.43107850271321    1.06143423586234    5.24162110886404
C         7.54175904183624   -1.83291852880683    4.51823429828373
C         3.75707588701740   -4.76271891211900    2.62932025764508
C         9.37407903797226   -0.57286704328184    3.48042689681762
B         5.53774765693231   -0.93500885994171    3.48375610455502
C         3.88042412773631   -3.59040752947216    1.75736174938809
C         8.11161254500192   -0.32984439329339    2.91379083047928
C         6.45692452213833    1.87105290565834    4.76643330636984
H         7.02641815647574    1.58434028130731    3.89989808173980
C         4.67009738122254    1.50231522790654    6.33637595857903
C         5.03489750450947   -5.20420395980855    2.93486904278711
C         5.98556980493634   -4.31360445670773    2.26932862481582
C         2.44632639893014   -5.37025719188846    3.01405441309984
H         1.97042666925564   -5.80548320206408    2.13361819887640
H         1.77479595856322   -4.61697788518062    3.42340918656353
H         2.57910759710931   -6.15026873522826    3.75909411977750
C         8.02668523497776    0.51389497844950    1.80870365031482
H         7.07288470156132    0.70214905662123    1.34587985875360
C         5.25870645897153   -3.43801802284145    1.41418258863021
C         4.93280727247446    2.69927934823947    6.97562766781835
H         4.33161208290176    3.00888363417006    7.81523778238906
C        10.41773687291467    0.86318331610843    1.90437614363385
H        11.30165143821918    1.33512801631951    1.50483824753228
C         6.71689484707411    3.06838144013988    5.40497330242037
H         7.51296931669939    3.69610410925580    5.03469063499519
C        10.52539238558269    0.01761280443184    2.99270414814137
H        11.47687010555318   -0.18833095141496    3.45582557158566
C         5.97300362058626    3.47906009239581    6.50403954207861
H         6.19865756595314    4.41693234789414    6.98688063812753
C         5.81877372794693   -2.62946937159492    0.28743824618951
H         6.83281912136795   -2.29605314783428    0.49955921573233
H         5.20528687568659   -1.75651634700185    0.08365027047144
H         5.84384230240175   -3.24765662532112   -0.61235861717330
C         9.17895631778160    1.09948128472854    1.32048190496879
H         9.10953651774938    1.75271001879485    0.46441512450518
C         5.44698974655539   -6.39166420538931    3.74409108901247
H         6.16077575585676   -6.10539405255890    4.51630405410889
H         5.92606078787811   -7.13121974921871    3.10017960826663
H         4.58957963443282   -6.85390838118785    4.22581544157483
C         7.45846291624378   -4.57866666761710    2.20628329525811
H         7.65267085023068   -5.38304583973748    1.49416406181488
H         7.84317013580765   -4.88741277685816    3.17680821963891
H         8.00558114859367   -3.69634254260349    1.87797035836786
C         2.73076002790997   -2.95400969522404    1.04203388162932
H         2.97065762211477   -1.93238477894870    0.75531800474112
H         1.84312988253498   -2.93878190484340    1.67031156630756
H         2.50244761003063   -3.52019693068336    0.13682578804272

