40
CSD_code = EJIGAH | q = 0 | S = 0 | Stoichiometry = C17H19BrN2Ni | MND = 7
Ni        6.50692206428262    1.89555293292913   13.25291706808362
Br        7.39846271775016    0.20057850398662   12.09683167430825
N         3.87793583858361    0.97387480244215   12.41841576041344
N         4.44950468395301    0.12537909292926   14.30879556143683
C         4.83924460661001    1.00328929180211   13.36315705918954
C         2.88750714731560    0.10430085038304   12.77943756849406
H         2.02829938809532   -0.07280269770179   12.16648403564305
C         3.24781329968794   -0.43174258920928   13.96940053319111
H         2.75916575115836   -1.15740467565633   14.58603980473261
C         3.91278312309006    1.73965824222918   11.19778141496060
H         3.64317743541614    1.09134253861687   10.36007537859379
H         4.94941119025958    2.08095426478166   11.05610633037806
C         2.96871477932307    2.94755045509911   11.26085416305555
H         3.23996066720735    3.55692424455824   12.12572290510959
H         1.94165216787527    2.60110403961066   11.39441212838918
C         3.08417883761683    3.75881141310410   10.00077329527867
C         4.16144221321489    4.61696744363702    9.81976754176652
H         4.90104710911632    4.71581668727696   10.60072226656932
C         4.29178730425683    5.34622504703523    8.65225779929521
H         5.13299133956084    6.01133233758735    8.52391820190757
C         3.34517105860022    5.22423360749350    7.64905947203775
H         3.44532179007758    5.79403396509790    6.73738781362087
C         2.26996984166703    4.36991530304003    7.81969996695131
H         1.52832038193094    4.27076622661793    7.04081540696890
C         2.14241759804670    3.63973855501797    8.98851280116309
H         1.29982642904011    2.97471046424371    9.11684914420481
C         5.22493344012581   -0.22053666112968   15.46962540456453
H         5.30871343027457   -1.30386899751333   15.55311682578989
H         4.76849413983659    0.17939209933244   16.37724605979569
H         6.22815503844304    0.20444911269804   15.34784467840784
C         6.38904297244983    3.37134504196331   14.73932059590341
H         5.74327461146274    3.45203380373635   15.60178922344914
C         6.11328525335413    3.98751664915373   13.45445022728507
H         5.23626180796279    4.58018900002419   13.24146962625539
C         7.24283137105767    3.85484536308435   12.66342956330155
H         7.41250737444172    4.27814130156018   11.68578286167036
C         8.19435714523816    3.09129967231621   13.41160870250412
H         9.20703163731500    2.88966173961775   13.09092438528283
C         7.70413977233862    2.90763066529281   14.72958421934860
H         8.25874324196396    2.50739086291168   15.56361253070033

