39
CSD_code = EJIGEL | q = 0 | S = 0 | Stoichiometry = C16H16BrN3NiO2 | MND = 7
Br        6.47757053299242   19.47426215384232    5.12571197037164
Ni        5.19094646495228   19.00236194538921    3.36173417321424
N         2.79790755275583   19.80161714092062    4.82578659606720
N         3.23101555073030   17.71364519633498    5.08749534079071
O         5.65658871018290   15.25030972948766   11.03454468947697
O         4.53514959375748   13.46639281110932   10.62038181917710
N         4.99599816197807   14.54361311823523   10.30636419255369
C         3.64190750120738   18.82489875257311    4.44220747527287
C         4.20374232140202   15.92323675115145    6.41652911309448
C         4.73049961811601   15.01785891596817    8.96975926435597
C         3.94207571547135   14.24898232459356    8.12306021748080
H         3.54657322536194   13.30905658184008    8.47602854375090
C         5.26435776464505   16.23079679374907    8.55093941326867
H         5.88135759044690   16.80300055827192    9.22576486415193
C         1.85976862930628   19.30529323122740    5.68777287918492
H         1.09094890551460   19.91757717090260    6.11140380531225
C         3.67926888750970   14.70922308527442    6.84789982519912
H         3.06629104628300   14.11840199178539    6.18319453877908
C         2.13185805841230   17.98958625274548    5.85359387241471
H         1.64773915610900   17.24406012340566    6.44939408497448
C         2.91280129525685   21.17930270802634    4.42826613742224
H         3.86202380728913   21.30142463743374    3.89426473190285
H         2.91792537019153   21.82243429364368    5.30762122338662
H         2.08832934441511   21.46612226253588    3.77376928226453
C         3.90467004599694   16.43532993022248    5.03266076079728
H         4.84632771197169   16.60032911370024    4.48098595409911
H         3.29114947950022   15.71606526712633    4.48004864339838
C         4.99982203814808   16.68078372969972    7.27268403985378
H         5.42369006708098   17.61454853710661    6.93385848327125
C         6.61202262569994   19.19176479088653    1.87042305339674
H         7.63973354318632   19.52088430532356    1.94007268760503
C         5.51637028362854   20.01041369338879    1.49593199592796
H         5.55729206382952   21.06541005768375    1.27592548362152
C         6.19916808333659   17.82034954904247    1.84386077977270
H         6.85394690104077   16.96792807962269    1.93204275292395
C         4.83171658710117   17.80978431489077    1.62832734957809
H         4.20515410872789   16.94421233505265    1.47560564752360
C         4.39602728386668   19.18226969818661    1.43874828971412
H         3.40616437259744   19.46446806762233    1.11093602464608

