25
CSD_code = EJIHIP | q = 0 | S = 0 | Stoichiometry = C11H10CrO3 | MND = 9
Cr        2.97595440461439   11.96942417629738    9.24460940762917
O         2.71925936091700   11.41390183681376   12.15916832978287
C         2.76238886177874   11.62008455340530   11.02154510058590
O         5.17492818388371   10.07189080354111    9.91445941953760
C         2.13885212633235   10.92985660687315    7.48381861500058
H         2.47102600949386   10.01612811202028    7.01365135174720
C         0.80467046699407   12.43071275188230    8.57448635134080
H        -0.04052181752350   12.81940737294127    9.12298102119545
C         1.05255333907336   11.04623456073280    8.33373398236737
H         0.42225971401480   10.23830784461936    8.67489414143955
C         1.73635394516690   13.17805376810333    7.87482463825527
H         1.71212745777979   14.25065394051122    7.75142860893732
C         3.96395319214956   12.54498985078772    6.93276311385962
C         2.63141766371416   12.26349463328175    7.18809074577598
C         4.90995851770539   11.51375074322247    6.39179411789959
H         5.90557146796190   11.67040792100184    6.80269323613987
H         4.98478224975945   11.61489141259149    5.30574338712526
H         4.60401154826061   10.49768587636878    6.62087659818477
C         4.47927313617692   13.94826878861151    6.81044702184995
H         5.45160936233768   14.03135390424087    7.29324272604424
H         3.81551819996258   14.68332997826687    7.25463570009426
H         4.61717941000022   14.19947842402277    5.75562569341913
O         4.42429189567701   14.16876767506963   10.64031802822821
C         3.87492118009921   13.33929008261050   10.05609184321428
C         4.33846012366996   10.80553438218263    9.60867682034585

