63
CSD_code = EJIHUB | q = 0 | S = 0 | Stoichiometry = C28H30Cl2O2Ti | MND = 12
Ti        2.78968629766671    2.51551717818053   16.51324571201929
Cl        4.29836019203644    0.93231899776996   16.06640173965755
C         1.12773185929992    3.27421424329773   15.06471984270801
C         1.87770552580107    2.30137565548715   14.35327372177626
H         1.49159343195821    1.37185745248279   13.95380892349573
C         3.18275734860818    2.79736393318158   14.16874938539302
H         3.96683976959739    2.32124156073776   13.59427654271981
C         3.26130745920727    4.06104393187178   14.78588306980344
H         4.10165218074582    4.74007461360971   14.71702178391129
C         1.98177610925936    4.36932571932203   15.30724622143347
H         1.67365689300370    5.32770151262891   15.70262239273019
C        -0.35115613609442    3.23708374923861   15.33693885899603
H        -0.56943347912415    3.70742257040894   16.30029101836162
H        -0.69126268518937    2.19961597419258   15.37095084106217
C        -1.05654759740754    3.98042537402863   14.22824696223536
C        -1.44345164325104    5.30269009721774   14.38590518568477
H        -1.27419683270838    5.80185093294229   15.32970766682137
C        -2.05423405676747    5.99080724881423   13.35219157834743
H        -2.36068366501305    7.01648625247395   13.47921562675678
C        -2.28749723799144    5.36661452079531   12.13709084171176
C        -1.89802926783106    4.04217861236763   11.97389731417832
H        -2.07634630178284    3.54522451788784   11.03078279793361
C        -1.28718449930721    3.35921505717445   13.00690633935913
H        -0.98893611902626    2.33033760736144   12.86850165499654
C        -2.94442135091189    6.09414611940734   10.99501862347687
H        -3.78663261015348    5.49251440596865   10.61128653747440
H        -2.22007429683063    6.20315464276414   10.16754683030204
O        -3.40352297470817    7.36143324983525   11.39826255835101
C        -4.02831202611382    8.06825369261134   10.36190324210650
H        -4.90492729320216    7.52822804122250    9.98094121166742
H        -3.33827413351761    8.24719615556556    9.52687823287458
H        -4.34482029271711    9.02148639617995   10.78033388531000
Cl        1.27865880961891    0.93351387182946   16.95678064479161
C         4.45262095499251    3.27521972508929   17.96001752788360
C         3.70303925771580    2.30300254472590   18.67277994002110
H         4.08924003494857    1.37354368935751   19.07223751874284
C         2.39808264170322    2.79897918927451   18.85759228185909
H         1.61418910575954    2.32301373415948   19.43244692429296
C         2.31921098583103    4.06222739395644   18.23958205762103
H         1.47880249575058    4.74119017348832   18.30824765727602
C         3.59851069724106    4.37022150176537   17.71740817080446
H         3.90638179706753    5.32830367737588   17.32113318571436
C         5.93134662271197    3.23774021968289   17.68705436324635
H         6.14941955502884    3.70825421949249   16.72373762218909
H         6.27122196668140    2.20019426093248   17.65279771006404
C         6.63692763186998    3.98079008204198   18.79583842323385
C         7.02373911713476    5.30313232650978   18.63853313590937
H         6.85450872788594    5.80252558161183   17.69484310378761
C         7.63449238493935    5.99101550788093   19.67243073790953
H         7.94075424862006    7.01678989085186   19.54570732393677
C         7.86779272679576    5.36653325037474   20.88737139297893
C         7.47848218100486    4.04199853678156   21.05018533151244
H         7.65667253986285    3.54485179326491   21.99322894690631
C         6.86761706311659    3.35928529855461   20.01701543719773
H         6.56954813240606    2.33032167244651   20.15513646090082
C         8.52424048291700    6.09392138531103   22.02980376291069
H         9.36610918530664    5.49208572444365   22.41393980658022
H         7.79949938455211    6.20309237655331   22.85692006654298
O         8.98385532690157    7.36110690989070   21.62682187565429
C         9.60794233286454    8.06787887076119   22.66363505826840
H        10.48424940120083    7.52779587074379   23.04523926189746
H         8.91729648169307    8.24688001741410   23.49815092552842
H         9.92482515833196    9.02109068640616   22.24543620018321

