26
CSD_code = EJIKIS | q = 0 | S = 0 | Stoichiometry = C11H12MoO2 | MND = 10
Mo       -0.75528244951638    9.28111347161131   10.31952406371930
C        -0.45427627747767    5.96552644129206   11.46575149736688
H        -1.05625518775195    5.06114167464045   11.58223222178510
H        -0.09729588818602    6.25925344980097   12.45183530504223
H         0.40323947681823    5.71519407053616   10.84196848489129
C        -1.29250365728249    7.04550742999178   10.85079197049289
C        -1.51013853360956    7.24304203773280    9.46150368980402
H        -1.08372838445411    6.63523479931944    8.67198118464628
C        -2.52669188904689    8.19942057750874    9.29629355255944
H        -3.01374015582789    8.45719972293880    8.36513983018770
C        -2.92785077289209    8.63956260053912   10.58887489743623
H        -3.81851754755856    9.21864739895101   10.80875003624519
C        -2.17109600217614    7.89787123556899   11.54320929168930
H        -2.34536585842364    7.89140150023562   12.61186711511024
C         1.44282016151111    9.15339301603347   11.07974309458936
H         1.95257091981996   10.10245967427695   11.22201525081013
H         1.67885043179393    8.42469165405191   11.85016348104416
C         1.29290644993783    8.67480013613739    9.76024844538886
H         1.42997556780018    7.62296470004721    9.51096408231936
C         0.95364677937793    9.63055668900657    8.77689487800606
H         0.80808096901198    9.26989585425160    7.76254203625303
H         1.44716956043794   10.59814711443565    8.81792460552354
C        -0.44272781418664   10.58758962413809   11.69072959725380
C        -0.93339051359552   10.97488241680137    9.43138813324406
O        -0.25030476839324   11.37354239706075   12.50710501331040
O        -1.03089461613058   11.99356031309113    8.90755824128188

