82
CSD_code = EJILOZ | q = 1 | S = 0 | Stoichiometry = C39H38NP2PtSe(1+) | MND = 4
Pt       11.51115492170693   14.65548849236312   12.11488603664411
Se        9.37861808924980   15.47158916724849   10.84728938132374
P        11.19114367300368   16.18686550099343   13.73428472846910
P         8.76662240785224   16.98580141020038   12.19597740878257
N        11.97139616851910   13.18047214465496   10.69487523713263
C         9.40097561434557   16.65564122677054   13.89276471485630
C        11.55118525842399   15.74281611365911   15.45374278430557
C        11.16461179114927   14.45658726054717   15.82218651496696
C        11.39515922861326   14.00498666677516   17.10621397207795
C        12.02155014119545   14.83533268468300   18.02369758629103
C        12.42277986585477   16.10833636270456   17.65346167504505
C        12.19414812945370   16.56716220705761   16.36724317909354
C        11.99564808372335   17.75462189482114   13.32946819382294
C        11.74623378722203   18.95845404974578   13.98140687090676
C        12.39756037682712   20.10657221406591   13.56882658573710
C        13.29288036436498   20.06128241742770   12.51179787160905
C        13.54084787232411   18.86520491401091   11.85745920016166
C        12.89225368273996   17.71496327190093   12.26424947616746
C         9.32311595426428   18.66375531303442   11.77133027406208
C         8.81822569904866   19.73939716180598   12.49510861594083
C         9.22443635642044   21.02115308681286   12.17893111664858
C        10.12278811505009   21.22941074152651   11.14299409605362
C        10.61228411652334   20.15792023792197   10.41512516405587
C        10.21014476740009   18.87166831986189   10.72587769480759
C         6.96204478318507   17.10346999233485   12.28306152919712
C         6.23844064295200   17.05314903953017   13.46762371824190
C         4.85860475649746   17.15495577392710   13.42357062809896
C         4.20685570742351   17.30584194992541   12.21052538317812
C         4.93083584115291   17.35450628885820   11.02886198832284
C         6.30785519212495   17.25295824904522   11.06362020282210
C        13.22533248925689   13.95598892831445   12.92228878195054
C        14.10118864548371   14.63496611421107   13.78397285121149
C        15.26742292734978   14.04528223940163   14.18577980643777
C        15.61423887166446   12.74978439595002   13.75356130304997
C        16.80929251408054   12.13230214340294   14.17860509665161
C        17.13764946977255   10.87583831442927   13.75623143392285
C        16.27862952749539   10.18105497730645   12.89186600236484
C        15.11386230616827   10.75098934803633   12.45955447452270
C        14.74594713866349   12.05187552935453   12.86937143226335
C        13.55664753880986   12.70047728807392   12.45279327194975
C        12.55018704695202   12.07827211550737   11.51159071376202
C        11.46975790443850   11.40205575858211   12.36032714888114
C        10.87286667422785   12.68650088326556    9.86208311689653
C        12.99870057588191   13.73097318968085    9.79893257315828
H         8.86465959319058   15.78490216888897   14.29125783260912
H         9.26177327720023   17.51384020442070   14.55562948530470
H        10.70068533745184   13.81589177059879   15.07905875711103
H        11.09743437965757   13.00796489070555   17.39253668943374
H        12.20665186760066   14.48453604755330   19.02715230539844
H        12.92308898248616   16.74538462953067   18.36664043656939
H        12.52926497849383   17.55147273144636   16.07405372888532
H        11.04773241077331   19.00482675585094   14.80569919849618
H        12.20616722163512   21.04097368021791   14.07422787863981
H        13.79737842416417   20.96219416789001   12.19849897343587
H        14.23700223872784   18.83213588610439   11.03349024975470
H        13.06606318669741   16.76310349838323   11.76319272511992
H         8.10465085628520   19.56926415573759   13.29054552066085
H         8.83539135151531   21.86005672324106   12.73546153686447
H        10.43443035943116   22.23298358887514   10.89815505266873
H        11.30270601238502   20.32335903360571    9.60264630095271
H        10.57969080234659   18.02641026603139   10.15965927507564
H         6.73912999018263   16.93583330858634   14.41830322945050
H         4.29169574252340   17.11452691074601   14.34115992473347
H         3.13099269822628   17.38269521052182   12.18559521806680
H         4.42256398683875   17.46931539668171   10.08412748375837
H         6.88940273384754   17.28025589362936   10.15048524401982
H        13.86111049501822   15.63461079502281   14.12913366458737
H        15.94237021754890   14.56856027789241   14.84723225311801
H        17.45946730694538   12.67612888555236   14.84802122835888
H        18.05363159705790   10.40884853682677   14.08406835645923
H        16.54410868587964    9.18559686681282   12.56927486824692
H        14.46580657861699   10.18999198570504   11.80407987194088
H        13.00883173042591   11.34465122388291   10.83627744433393
H        10.86641015322645   12.17400146534344   12.85258608951465
H        11.94630885093851   10.80172600470385   13.13144125472977
H        10.82414086097304   10.75476369325422   11.77335825631861
H        11.19129047314632   11.81592497650598    9.27924349073721
H        10.55548566831179   13.46937146127075    9.16847502739329
H        10.01248356823331   12.41413144347297   10.47149569103984
H        12.59978998099261   14.60774528450114    9.28483935917809
H        13.28986265809170   12.98992542647615    9.04622968815521
H        13.88761972408003   14.01746937380326   10.36224657303043

