46
CSD_code = EJISIZ | q = 1 | S = 0 | Stoichiometry = C15H28N2Rh(1+) | MND = 6
Rh        7.24850956320651   11.57512527570145   10.62888480487238
N         5.41313306664359   12.76186571475133   10.05227375378084
N         7.33297948219124   11.31479553949055    8.51575787235865
H         8.02110998307502   12.00386488717741    8.20265813620665
H         7.65587348249915   10.40630080579241    8.18216427026679
C         4.14099498991980   10.63556908451888   10.42234470901425
H         3.44512179731726   10.21966304483034   11.14554475253492
H         5.13887149184243   10.22401730648453   10.62612452152069
H         3.81632305325939   10.31834301204184    9.43531119285344
C         4.16896454696496   12.15610642856910   10.55042459081839
H         4.08252691157011   12.42571706858629   11.60556823484361
H         3.30563348405192   12.59282572585669   10.03112252240595
C         5.52132241724110   14.16116556313434   10.49535132218102
H         5.69222754094622   14.22449689613707   11.56870950874538
H         4.59948103997880   14.70708074245452   10.25556339537100
C         6.66917848344033   14.67951673424707    9.64614579111247
H         6.77207167828062   15.76049822522183    9.67674165779012
H         7.60825517800024   14.22024402790731    9.98385476687425
C         6.27052678750474   14.15317430852424    8.26614671120078
H         7.13308556619684   13.95692038701360    7.63143375217688
H         5.64906183649826   14.88388583942916    7.75047745793855
C         5.44729173908470   12.87786302721212    8.56620890642299
H         4.42212018283256   13.00694913585751    8.19415031841578
C         6.03342107787327   11.63014505402008    7.90704613073160
H         5.37047268580680   10.77657052150779    8.05251125659054
H         6.12398166616797   11.80746372856229    6.82764570164775
C         6.77460017632702   11.41221728720502   12.71483425304961
H         5.74438095552155   11.72258321518415   12.88236450634491
C         7.05743920289488   10.00869386680927   13.19352487893683
H         6.16976759710852    9.39915113895226   13.01219572023848
H         7.21424029440034   10.02903453144396   14.27574558307952
C         8.26800634851973    9.35974611425042   12.49686940891472
H         9.18042811262404    9.53752668419394   13.06468370645211
H         8.11398703898488    8.28102811065688   12.46323296224491
C         8.45792646004338    9.87237669381795   11.08801420893643
H         8.26639789574848    9.12904920974174   10.31192071040006
C         9.28059625194157   10.94708800683084   10.75801815973344
H         9.73053966748647   10.95121517796560    9.76334022673311
C        10.04379744552697   11.78972385319268   11.74801288541438
H        10.41421422285815   12.67580024580958   11.22738767941296
H        10.91959449099556   11.23206439060183   12.09183486446155
C         9.18666129498799   12.22869693922275   12.94650512044584
H         9.57040026550574   13.17721545826030   13.32318450752756
H         9.25945212315126   11.50612749380336   13.75814478258781
C         7.73268227287413   12.40417423685647   12.57018288337924
H         7.39644815010698   13.43991926016809   12.58093691303085

