45
CSD_code = EJITUN | q = 0 | S = 0 | Stoichiometry = C21H18N2O3Pt | MND = 4
Pt        9.33251499160319   -1.25816661720148    1.35452491032792
O         8.92999653188037   -0.03685256784211    2.93378783542259
C         9.68784908717723    0.82252330332161    3.45819706946906
N         8.47177371803975   -3.29822452553612   -0.42922147804845
O        11.27021091727892   -0.35660479856625    1.26255597388836
O         5.82802235046593   -4.79713277442607   -0.59357942787077
C         7.35416793579360   -3.12466087324722    0.39655301024271
C         6.47198652256369   -1.89337170321693    2.26381605191031
H         6.59816214014459   -1.14109704613325    3.02777092466164
C         9.98388028487653   -3.84463721523191   -1.89339968285226
H        10.56291005718836   -4.26458398305619   -2.69014853469174
N        10.47681308694452   -2.86229048388226   -1.07361229761436
C        13.10351510503198    1.05173929842655    1.77933478416405
H        13.54685141527265    0.51921542394647    0.94114338508845
H        13.71362676025348    0.89714622099713    2.66686102113247
H        13.08589912968425    2.11724053753114    1.55950363261650
C         5.11201796726293   -3.54574196987740    1.19900008761764
C         2.51841529566395   -6.35811560986836   -0.45431279336464
H         1.90317351590854   -7.10405562670981   -0.93463771857306
C        11.69278722461226    0.55221031013870    2.02751159943522
C         8.71832567878870   -4.12025394687748   -1.48719994647913
H         7.99594764580308   -4.81695773730490   -1.85875174252564
C         6.16325930294615   -3.81832250487962    0.30159224565283
C         9.54843743547407   -2.51738480105324   -0.16461149670181
C         5.27122472971237   -2.57807001918149    2.18236731444291
H         4.46521408461805   -2.36905075025401    2.86959353079821
C         2.76199755538938   -4.68111444147159    1.26837920294996
H         2.36436841478600   -4.12877098517051    2.10577072851089
C         3.80016576711709   -6.13238601180880   -0.92691206763654
H         4.20096673489002   -6.68312454048698   -1.76305683171805
C        11.79286011678234   -2.29653206955030   -1.17843814558737
H        11.90113908622754   -1.54346296265309   -0.39939076141185
H        11.92908337585472   -1.83273021880859   -2.15683392025698
H        12.54961746767776   -3.07155633871360   -1.04541370860142
C         4.04998174188982   -4.43699236293215    0.81174213977370
C         7.53028049836645   -2.14238027022529    1.38870460831675
C         2.00794244784091   -5.64413660323145    0.62540729069414
H         1.00328425082513   -5.84906543848913    0.96428957018778
C         4.55198624377751   -5.16826100048764   -0.28283565097579
C         9.11625865442105    1.58919214216552    4.63521863560215
H         8.07959387263419    1.30236992663667    4.79104364886610
H         9.17280378912232    2.65973215092685    4.45116009735646
H         9.68806079378871    1.36547635592974    5.53387068927005
C        10.99320468135898    1.14468911898114    3.07805981763310
H        11.49952159225584    1.91355400938352    3.64179639887676

