58
CSD_code = EJIXOK | q = 1 | S = 0 | Stoichiometry = C27H27AuN3(1+) | MND = 4
Au        3.75538592986385    5.52916847161384   -2.72692769205715
N         5.43994224496002    5.40078848595171   -4.13438432842623
N         3.74082969845653    3.54453254041304   -3.23653753537605
N         3.99681920246908    7.46952042615739   -2.49976228084308
C         6.09803522081473    6.38212735802011   -4.72918633492015
C         7.15209808446883    6.14709170563189   -5.59456867327250
C         7.51220583202945    4.83036884179637   -5.84749294278483
C         6.81086996923186    3.80573964743372   -5.23459897074945
C         5.76699303366973    4.12150802467502   -4.36587952248424
C         4.92403981486630    3.11099325203227   -3.72015642002735
C         5.26868424650142    1.76789586796878   -3.64857453004552
C         4.36050820908525    0.87842602545496   -3.09990674123178
C         3.10866663074071    1.33279862767057   -2.71854533066284
C         2.80733099030633    2.68812572411539   -2.81361292229033
C         1.43067895951307    3.25665859807715   -2.51743978135710
C         1.51298084999144    4.18093353270699   -1.29984722342814
C         2.44689884493102    5.21288836530231   -1.21325413792778
C         2.51940385720694    5.98936000753627   -0.07186694893749
C         1.64796410355654    5.79653580636144    0.98716499329248
C         0.68790159223290    4.81088932514568    0.89236017303260
C         0.63058989119502    4.01246123177051   -0.23462584252729
C         0.95351223368703    4.05272326967490   -3.74947038829167
C         0.41750209181602    2.12138375748820   -2.32588864419531
C         3.24931923250752    8.36383367007613   -1.76952009002470
C         1.88415171483800    8.55534203985401   -2.07058794078872
C         1.15905212993375    9.49352060159525   -1.35807391613869
C         1.75015332792080   10.25308575313174   -0.36363392847625
C         3.09420075924391   10.08218712288871   -0.07774427421667
C         3.85398522773344    9.14645867424712   -0.75566838466145
C         1.21656460361765    7.76067428837221   -3.14565397299300
C         5.31097534774507    8.98890575900881   -0.42271094494740
H         4.97502058823766    7.60345130148478   -2.26255212817333
H         0.88483355388640    6.80217887580547   -2.74531422148212
H         1.90171290088128    7.57450584731459   -3.96984427213655
H         0.34491520793725    8.29098932586983   -3.52016632801149
H         5.93817074329898    9.35106508889639   -1.23930559796302
H         5.57259465494883    7.94763033622642   -0.22295954776124
H         5.55371001231458    9.57085232322303    0.46213919122439
H         5.75548215154027    7.38080658923590   -4.49706240139000
H         7.67116296889574    6.96938330993263   -6.05844743844942
H         8.32438377715112    4.60344604861137   -6.52055671062865
H         7.06160866488609    2.77911709465664   -5.44309394078877
H         6.22966685941877    1.42570829940778   -3.99319535482498
H         4.61339485118428   -0.16523907491438   -2.99847618881409
H         2.38266478742794    0.63121918289693   -2.34871908631387
H         3.25044444660543    6.77636491155992    0.01422556300362
H         1.72663724011331    6.41743061552348    1.86519790246396
H        -0.01582901513624    4.65191187550191    1.69449201642636
H        -0.12797783954598    3.25023224826631   -0.27268483198956
H         1.64389931203463    4.84659699297011   -4.02298081106965
H         0.84400789118253    3.38509584539334   -4.60173349564047
H        -0.01410250071410    4.49968799114194   -3.53543758876186
H         0.61688099957098    1.53663459074028   -1.43193910227336
H        -0.58548948658023    2.53356673735930   -2.25622070532860
H         0.43509358630077    1.46320691686166   -3.19189065095205
H         0.11496212781581    9.63751615257316   -1.59235461163317
H         1.16966062976275   10.98031260376838    0.18190949497813
H         3.55804701146164   10.68190116749562    0.69116632402739

