98
CSD_code = EJOBAG | q = 0 | S = 0 | Stoichiometry = C34H53LaN6OSi3 | MND = 7
La        7.97238315369896    7.08294514212724   13.20837453560921
Si        8.05655450577490   10.23969024089435   13.78460147620135
Si        5.53604504680850    5.80606771829498   14.99010294601631
Si        7.34062732967510    6.36002141673096   10.14214283913518
O        10.66324545583733    6.71090879301329   13.76788701871855
N         8.61199395194362    8.89183545291986   14.65560197247973
N         7.01309012624375    5.23662283958931   14.35689346122827
N         8.77642060208825    6.70006494583909   10.98115555039353
N         5.16441069596339    6.97359531865610   13.67580906305902
N         6.26759465314237    7.48056671175362   11.05339263150598
N         6.55381028816644    9.47738473414992   13.15137067809014
C         4.60622801775459    6.34031577201453   12.49158920036196
H         3.51781480798813    6.19831415526400   12.59241312197532
H         5.06487039745474    5.35487511871063   12.40396157127570
C         4.86780896695569    7.11477274027366   11.18579548525599
H         4.52962882599571    6.48662955564411   10.35298318657038
H         4.24632648843657    8.01383952486031   11.16394998202547
C         6.45864715378287    8.88449103018166   10.72676218073288
H         5.89906088139005    9.15810850847150    9.81700543931301
H         7.52100767006300    9.02640534765997   10.51937566506773
C         6.04189456512901    9.86660058224705   11.84725277322652
H         6.40280142978890   10.86020266189955   11.55434694847859
H         4.95047960951450    9.93235659224168   11.88617493716746
C         5.52671371598927    9.38468546488743   14.17953369473670
H         4.95599103864257   10.32443146802188   14.25288879248084
H         6.04077231804206    9.23438563799742   15.13033146754327
C         4.51689681940535    8.23262393338458   13.99978300231974
H         3.94175566218135    8.16293058828746   14.93072283807350
H         3.80344757861012    8.49382871462585   13.21307071720526
C         7.58482358503231   11.88599985001603   14.64897278965266
H         6.80024990872778   12.41143821848381   14.11137777113999
H         8.43390443235440   12.55772951066541   14.72127732951057
H         7.22784562796849   11.70230732283300   15.65716055053395
C         9.17388612595780   10.65771801600673   12.28593874841769
H         8.71106095210907   11.35274694346075   11.59361485811706
H         9.42700190007355    9.75343527169030   11.73713662745659
H        10.10191180594803   11.10828749567596   12.62300341297440
C         9.27163769865025    8.78383635399095   15.84400190687428
C         9.36630331596815    7.52063800963257   16.46020928561855
H         8.90531915848804    6.66261290213902   15.96701471171426
C        10.01379233656555    7.36157653644868   17.66745096798649
H        10.06054704390897    6.38150224942732   18.12278778785631
C        10.60039133720488    8.44604374202973   18.30351187520656
H        11.10959370767649    8.31890433130652   19.24684393291283
C        10.52162210748217    9.69624259697282   17.70972426660659
H        10.97642871744040   10.54976979156918   18.19339719191233
C         9.87089274533756    9.86724817670968   16.50510519664216
H         9.81613326272091   10.84191923007822   16.04452469201596
C         5.67703113761893    6.75584378824993   16.64612983635854
H         4.74986878635277    7.24041732353270   16.93405737961195
H         6.45491835784838    7.51184853905897   16.60413099033019
H         5.94289455576680    6.06852545816544   17.44235193786596
C         4.06259412070190    4.58590070968361   15.15318594251962
H         3.11078314274660    5.07351870393298   14.96272179683477
H         4.01148495904139    4.15324448393047   16.14665140677657
H         4.16144131746245    3.76678156123893   14.44831223469837
C         7.61477307083908    4.02518512128526   14.53954064217192
C         8.66999475812679    3.65714137495226   13.68279401464321
H         8.96223926007232    4.35209792984813   12.89166340324812
C         9.30780022746105    2.43974979061436   13.81032260790719
H        10.11180744517432    2.18677035977186   13.13279256758330
C         8.92250221587317    1.54443947108329   14.79594859453224
H         9.42132903439813    0.59261246150053   14.89662500381677
C         7.88506161581443    1.88882591701083   15.64924291545269
H         7.57565010752345    1.19866965245527   16.42191217770650
C         7.24051168573481    3.10194891421457   15.52809776816053
H         6.43704156038189    3.36669880710041   16.19769356736965
C         7.34854020161758    6.82395238862110    8.27997351108455
H         6.36063041841858    6.76353072453113    7.83301102583687
H         7.99993828918558    6.15392006293696    7.72936103376840
H         7.72212417703179    7.83121789961399    8.12779161891440
C         6.60635414157531    4.58735059508957   10.24094385591858
H         5.56115375242345    4.53148112614083    9.95434593783126
H         6.70219096618837    4.17484851587443   11.24226856190157
H         7.15298467450186    3.93329802258203    9.56862563047947
C        10.02190684429667    6.20448253722850   10.64345846656284
C        10.25686977363409    4.85297927551331   10.35619282975891
H         9.42229609032276    4.16813077798691   10.37458946346776
C        11.52559356056280    4.39646551073133   10.06197383050836
H        11.67992082664080    3.34637571287064    9.85460346857865
C        12.60063499932801    5.27039744605516   10.02427824418735
H        13.59181125091450    4.90984215696662    9.79236495892798
C        12.38285812537965    6.61640571612637   10.27194911265168
H        13.20930446672602    7.31314628660438   10.22003974301933
C        11.11727521103110    7.07738221740150   10.57427988646163
H        10.94575169699288    8.13147351791857   10.74927123773047
C        11.40821764571805    5.55524810584685   14.14546008321552
H        11.94029004081701    5.16828675396099   13.26402606432207
H        10.71222414439224    4.79935644411799   14.51296731163828
C        12.40301647306347    6.02559059195115   15.21736552178283
H        12.00943252454045    5.83578735008367   16.21366049175999
H        13.35752389757830    5.51324962546653   15.11767910298071
C        12.52136271969208    7.53696036177064   14.96663792007070
H        12.14628401127997    8.09848042388466   15.81969267629375
H        13.54545875544177    7.84582493905210   14.76810366916823
C        11.62622424236711    7.76209735856342   13.74230925518110
H        12.21794291176871    7.68269546399376   12.82067834458100
H        11.09288828154892    8.71276446307370   13.76589527440857

