94
CSD_code = EJOFIT | q = 0 | S = 0 | Stoichiometry = C46H44IrNP2 | MND = 7
Ir        0.53332191031660    2.69974855793750    5.44037702857262
P         0.56595001210419    3.76662446831112    3.36958683575888
P         2.63451647676445    1.37322696163104    5.46305853979714
N         0.18326355773626    1.05913022703819    4.17846818810897
C        -1.38157268105679    2.32092431886120    6.33569002150710
H        -1.97045572388188    1.64008236601575    5.72344432684735
C        -0.38637984697494    1.73952996395531    7.14741176990088
H        -0.30543479327459    0.65575716607623    7.10415672758104
C        -0.00552600125180    2.32759417831958    8.49430353037331
H         0.31976441141069    1.52215987660443    9.15575737318702
H        -0.89266583386755    2.77616961075255    8.94753392597438
C         1.12490344103774    3.36714392207186    8.39163332922085
H         0.98003085133451    4.16101587075367    9.13415190701513
H         2.07562325854757    2.88558104710829    8.62322528406718
C         1.23612540202214    3.99706993029890    7.01953470207323
H         2.23547367404319    4.38070064883214    6.81143876827864
C         0.15959492682085    4.63181039798002    6.38729590243918
H         0.39961036822432    5.45530977630384    5.71505177403202
C        -1.20587172162374    4.75880136127520    7.03625021622183
H        -1.07308418946492    4.83409283064840    8.11735851210450
H        -1.66960729156818    5.68831153866956    6.70036829380049
C        -2.13419991931690    3.58286026974520    6.69382110546977
H        -2.75486573754567    3.85918636860903    5.83973140439358
H        -2.81167374778513    3.37626609700765    7.53089212298719
C         3.90759544959222    1.09714440098368    4.17417044097735
C         3.44770000848658    1.13085363442227    2.85967037997454
H         2.39942845863983    1.31589854139532    2.66917059932739
C         4.31482261900810    0.93329098803772    1.80444941569425
H         3.94333492673983    0.96544486703185    0.79075560687609
C         5.65827992201156    0.69843042806914    2.04936374797272
H         6.34251977529995    0.55125726424297    1.22661781044222
C         6.11918373673894    0.64327865391903    3.35324587654612
H         7.16345877913760    0.44448344251399    3.54894263596698
C         5.25104589340087    0.83642726168379    4.41387674047461
H         5.62514563794636    0.77730243707470    5.42572336463187
C         3.58281864249241    1.30755856262479    7.00877036061592
C         4.60481528835537    2.24197420110196    7.17874311515253
H         4.86054567042862    2.89899171686024    6.35714588608383
C         5.28202403197279    2.33281297952615    8.37941085543727
H         6.07968088346165    3.05240916401870    8.49704314181939
C         4.93195059833277    1.50716523859862    9.43659974532197
H         5.46181737086537    1.57548979619640   10.37527121325108
C         3.88781554975366    0.60862378413401    9.29131461258189
H         3.59698592187324   -0.01839737414245   10.12218482050283
C         3.20776196876266    0.51572860355386    8.08997202522282
H         2.37558999091818   -0.16588008799911    7.99218896610552
C         1.80454086429877   -0.24500439339372    5.33092386222301
C         2.30787893472904   -1.45218956192510    5.78292818702263
H         3.30068960597776   -1.49048419647006    6.21187518608090
C         1.55167373776845   -2.61221496667660    5.68444181252023
C         0.27216784407894   -2.52282677532586    5.14407919114429
H        -0.34546667033888   -3.40972150978626    5.10574700830600
C        -0.22526585085482   -1.33283880918725    4.65043655746091
H        -1.23032209672904   -1.29059673397337    4.25703024001652
C         0.55155293323991   -0.17230095226811    4.69200126181787
C         2.08175737956779   -3.92980138829085    6.16631847126066
H         3.08364219260184   -3.81896729334625    6.57397406478706
H         2.11859715267594   -4.64729117206811    5.34693689269595
H         1.43480666861338   -4.34291962796766    6.94005767363583
C        -0.24429911327407    2.52408599841336    2.34473506724184
C        -0.20251752014354    1.21552394735226    2.88733847044191
C        -0.51620028846255    0.17069575478355    1.99457590814139
H        -0.36941396121023   -0.85463906608721    2.29671692828991
C        -0.99172231671944    0.43478926090198    0.73188082816698
H        -1.23996723837099   -0.39460052353388    0.08341949364892
C        -1.17393971070009    1.73666386231191    0.26304221973095
C        -0.75753943482141    2.77324857314865    1.07852420159667
H        -0.83412227038457    3.79759248080575    0.73421298760007
C        -1.76859937768770    1.98815274713119   -1.09087094463474
H        -2.82659881979031    1.72238829730600   -1.09708890781449
H        -1.27051851828405    1.38474144338945   -1.84943748157381
H        -1.67880443072393    3.03737646518208   -1.36403337475407
C        -0.33915305015969    5.29326759762832    2.97629099772964
C        -1.72524738552594    5.26212404322334    3.10986515165321
H        -2.19970270525052    4.32812016514091    3.37918688528405
C        -2.47355045680662    6.40112084303725    2.89086036926388
H        -3.54945944497755    6.37009847254115    2.98667752522946
C        -1.84243382490886    7.58798652981828    2.54827191841387
H        -2.42604245542775    8.48062114350513    2.37650055404302
C        -0.46358083930010    7.62855823232898    2.42865157405064
H         0.02826576769400    8.55403749562385    2.16530834875220
C         0.28983124454944    6.48764651641996    2.64551678232755
H         1.36673659212599    6.52110157158922    2.55229286662363
C         2.16977527178043    4.07144145922279    2.52666380421928
C         2.34156926564078    3.98044442318376    1.15079112891372
H         1.49717168726420    3.75268916638088    0.51697365028739
C         3.59597595066489    4.16068435141888    0.59647601574893
H         3.72529831294184    4.08411396654386   -0.47375112617772
C         4.68678201867620    4.43200819850672    1.40589028917724
H         5.66547430974613    4.56368694850108    0.96823549671830
C         4.52175014452578    4.52747168194831    2.77750127798137
H         5.37189206790222    4.73580232574952    3.41117625050216
C         3.26989434453847    4.34397129393772    3.33331005998175
H         3.12928156228566    4.39945545467160    4.40577142351907

