96
CSD_code = EJOJES | q = 0 | S = 0 | Stoichiometry = C48H37BFeN6O3 | MND = 5
Fe       16.05135527935920   24.20658876153412   26.70519833227462
O        17.61150426570952   24.04189563879032   27.95160665030920
O        15.58676085101821   25.57829520455955   27.99601710497513
O        18.13774323175734   24.52024067406545   30.07962451546447
C        17.48007989827519   24.64640306539750   29.06120826640831
C        16.28897173755159   25.62911621987021   29.01346201076291
C        16.04673968068847   26.56065273164390   30.14764324698287
H        14.99043337392645   26.80453649152965   30.23667908473772
H        16.60869069947790   27.47782003240745   29.96407498640540
H        16.43435422817262   26.10951703860128   31.05822829392352
B        15.71461601433026   24.29101957218330   23.64231618856355
H        15.57787827594184   24.30315161897913   22.47459383540235
N        16.66471524281972   22.86606592671075   25.42324972068470
N        16.57771948721006   23.12109674874154   24.11479189713235
N        16.80137281227956   25.62733066031957   25.43410249031307
N        16.39722198923405   25.56352826451764   24.15845798439210
N        14.38616170864956   24.25000984260689   25.71444171077036
N        14.37423173073457   24.20244588501148   24.38136481157514
C        16.73077662036852   21.26031079368155   27.88416121368729
H        15.74896990195548   21.64104570343568   27.62181060769810
C        16.98828231328102   20.78005517417250   29.15246034399455
H        16.21872636055410   20.81014461892048   29.91047095474273
C        18.23662746082418   20.26030309272096   29.45358325439418
H        18.44380265208429   19.89483778643115   30.44819283969484
C        19.21848096516740   20.21444972767555   28.47834409152264
H        20.19242676682137   19.81073095774438   28.71378963114120
C        18.96362964586709   20.69650612121823   27.20808795608173
H        19.73692903890561   20.68226587268249   26.45444179239225
C        17.71856716894968   21.23673330731303   26.90294536657476
C        17.43782583181844   21.78894548670008   25.58663840566065
C        17.85136832988524   21.33360198087388   24.32851031494694
H        18.47477187716979   20.48966637491744   24.11475692879016
C        17.28767472956164   22.21162027633317   23.41527535268317
C        17.39746424419916   22.21764181383614   21.95925315853402
C        17.18058526419953   21.04361971399109   21.24249614490530
H        16.93521324636133   20.13566918405483   21.77400813758472
C        17.25964734281793   21.04306074914650   19.86206475961439
H        17.08318653099231   20.12868772765442   19.31447891627178
C        17.55732447492578   22.21223455116869   19.18187212590564
H        17.60990833722615   22.21195374049097   18.10318889034727
C        17.79531269916078   23.37924264733542   19.88926873619974
H        18.03660073030395   24.29258185043816   19.36574935765797
C        17.72368995652624   23.38314773772985   21.26934054954001
H        17.92858188354088   24.28863339685572   21.81845299340014
C        19.09727235656761   26.45020471705892   27.41464889017978
H        19.37861398319210   25.51592965694937   26.95476643381476
C        19.72713075346491   26.88446429336276   28.56716564928498
H        20.49892109899282   26.27905666038403   29.01584877751632
C        19.36241412796800   28.08708238533971   29.14868448706803
H        19.85265606852769   28.42268308090825   30.05048194018455
C        18.36954614454296   28.86193686755771   28.57013711930059
H        18.08983015655592   29.80617805289622   29.01652790616091
C        17.73645310554187   28.43168117284102   27.41745635126911
H        16.95887528315644   29.03050915843735   26.96512074377597
C        18.08621501834090   27.21469568954149   26.84082148649934
C        17.44583425160204   26.78260427207076   25.59699250246924
C        17.45997331808471   27.47921320602148   24.38241885068267
H        17.90103105002222   28.43646119205793   24.19263758592768
C        16.78146933766725   26.66823094355700   23.48756680997477
C        16.50930223882608   26.89437954355124   22.07030578267547
C        15.22648625575806   26.74411965519397   21.55021692167697
H        14.41141749846529   26.48646695616977   22.20800249712525
C        14.99479126274791   26.93073249681385   20.20068276708678
H        13.99713490040394   26.79933259678475   19.80838667081068
C        16.03578918763345   27.28088328138686   19.35671247774454
H        15.85408475400510   27.42119692119655   18.30140240545244
C        17.30952798811824   27.45804693234428   19.87091447126780
H        18.12230814511808   27.74073502663283   19.21763020383769
C        17.54663387041634   27.26797722823143   21.21978420713799
H        18.54195876970998   27.39303075809638   21.62082618905297
C        13.52609346699558   23.74200255066341   28.49863391092321
H        14.37648152199171   23.14866542666664   28.17177079632020
C        13.20438217852454   23.81037141769782   29.84006174645411
H        13.81326852026794   23.29292084291342   30.56700102846134
C        12.10094608046106   24.54072417811675   30.25168999984181
H        11.84869465393098   24.59570209606120   31.30014433401599
C        11.32182342648934   25.19707724305684   29.31271629214127
H        10.45949936550559   25.76484661539026   29.63055703799206
C        11.64745508144921   25.13675698137806   27.97096473653255
H        11.04911154971711   25.66604000597673   27.24476169720561
C        12.76215229204781   24.41522853643722   27.54669739286047
C        13.12156860569094   24.36491549539522   26.13858518771459
C        12.27403012908623   24.40433333291777   25.02286170068077
H        11.20466380695850   24.45932266831093   25.01993267781887
C        13.10680167249457   24.28627111344242   23.92130005031894
C        12.74444442868297   24.24193321719651   22.50878727260409
C        11.81727526283230   25.15289314089918   22.00709803444157
H        11.37967093828694   25.88412929868266   22.67112753237500
C        11.47503719753352   25.13737794311967   20.66784609420417
H        10.76046693028283   25.85314667351830   20.28800207134016
C        12.05103998530146   24.21139996131779   19.81400279248678
H        11.78908613877193   24.20493003251332   18.76630423063378
C        12.95840174422578   23.28933711170472   20.30939571235240
H        13.40270217143489   22.55874358179615   19.64977234122156
C        13.30004696906435   23.29726617176784   21.64841988593199
H        13.99306007586833   22.56582685269172   22.03422136013658

