82
CSD_code = EJOKUK | q = 0 | S = 0 | Stoichiometry = C46H28IrN5O2 | MND = 6
C         7.41313343868392    0.00313128357163    7.75025249185899
C         7.88759942881812    0.47387388240941    8.99006056973969
H         7.19106114129800    0.96012009584661    9.65328916093008
C         9.19985938134305    0.31464803106720    9.34290928546245
H         9.54547560450647    0.68411662931463   10.29682647843287
C        10.10081704154485   -0.32623663297507    8.48176968634420
H        11.13364509709803   -0.43877116948254    8.77552255831310
C         9.66591020435631   -0.81474198382361    7.27981141237647
H        10.34471129624598   -1.32370194801874    6.61051410704336
C         8.32212693152984   -0.67239349873137    6.88928448613783
C         7.82745844208025   -1.19024507091179    5.66922397253416
H         8.50306302867618   -1.70586242074403    5.00174733107053
C         6.50964412162763   -1.03838855155742    5.36989874730267
H         6.05240048767178   -1.41930530779761    4.47123612767324
C         5.67617278448933   -0.33592243624222    6.27210007951237
C         4.28593209938069   -0.17591889500994    5.94403888944062
C         2.25507053054125    0.46907576439514    6.13774295970186
C         2.43100805579111   -0.30248868553388    4.93344561007104
C         1.35608680508755   -0.52963078362352    4.05971186326002
C         0.12112101980765    0.01907203861821    4.42495871895600
C        -0.02804619227501    0.76281040088965    5.61150241139913
H        -1.01324118365572    1.15197984825520    5.82264180207293
C         1.01395709182540    1.00255200644070    6.47305904045541
H         0.88526057596740    1.58475659005491    7.37226463741131
C        -1.07584327082904   -0.15021776843015    3.58768576818216
C         1.54529131114187   -1.30136333456560    2.82362795177051
C        -0.89079354054415   -0.88529434945003    2.31552182608142
C         0.34572682028452   -1.42802137550812    1.95483868769023
C         0.46578616340600   -2.10899587323320    0.74680696802857
H         1.43062312421246   -2.52108507264787    0.48950108051945
C        -0.62116197456682   -2.24916638812442   -0.09572977450353
H        -0.51472143116235   -2.77823444195485   -1.03165604169952
C        -1.84823558609888   -1.71028894563031    0.26240439958668
H        -2.69976479549013   -1.81861747246094   -0.39354574014775
C        -1.98010191069566   -1.03479021447980    1.46090350876317
H        -2.92548342630063   -0.60763936554667    1.76194135951844
C         5.48780333843892    2.49467949343966    9.78311263665546
C         5.54229474405834    2.27963204689007   11.16047878275413
H         4.96186866722311    1.48032206837456   11.60323374814449
C         6.32961506966037    3.06183814052695   11.98739620647369
H         6.35061475403848    2.86917375209327   13.05080598975390
C         7.09058691857012    4.09479862911175   11.45968826282826
H         7.70527360890610    4.70194556395157   12.10779761639000
C         7.05108162242989    4.34958654739362   10.10497708362922
H         7.63654005412887    5.16331961010541    9.70326661091490
C         6.25456048120536    3.56598288601606    9.26956278689070
C         6.12799751792438    3.77998394679181    7.83673278276479
C         6.82490245253537    4.74512751656416    7.10868122573955
H         7.53630382360127    5.38163006076499    7.60877585234535
C         6.60585136359489    4.88217668846806    5.75320725882191
H         7.14164869993764    5.62426236938329    5.18082977786532
C         5.67532222500202    4.05138466174235    5.14359621044001
H         5.45801683906716    4.12808789636733    4.09067876650472
C         5.02315300515285    3.11106926015834    5.91626410869218
H         4.29007981112195    2.45884463488071    5.46343584398881
C         2.85406092056625    2.47519253601713    9.05605084903792
C         2.43947599332496    3.76663763524637    8.75376738507046
H         3.04486338921918    4.39532016936868    8.11538850997751
C         1.25170573538518    4.27240303055061    9.25600150197795
H         0.94715629630341    5.27802645463893    9.00372642569197
C         0.44865676834255    3.49587374371235   10.07834637172503
H        -0.47781741911566    3.89480088497614   10.46364358674541
C         0.83545165922224    2.21156850441141   10.40115077892002
H         0.20408988949164    1.61107240334691   11.03903282222391
C         2.03021187986537    1.69654614277997    9.89720874669711
C         2.52297854013957    0.35480960325682   10.16264498681473
C         1.88174642396599   -0.59723819382579   10.95448996281467
H         0.93878350712560   -0.35917235863653   11.41860539904608
C         2.45313034273649   -1.84008352295809   11.13899794238757
H         1.96549365924038   -2.58572089886263   11.74804254657038
C         3.66979383742365   -2.11017615993928   10.52564424465804
H         4.15595018759241   -3.06509551921599   10.64370843396303
C         4.25308896790929   -1.12787222043874    9.75064933322811
H         5.20095973882044   -1.31059889065701    9.26280129431143
N         6.11213227411545    0.18192683878746    7.41341430797190
N         3.45512982209247    0.52963185485444    6.75376470167760
N         3.72132614375444   -0.68489601639053    4.85300254644305
N         5.24211774579038    2.95779591898577    7.22167370047972
N         3.70639710121975    0.07295518450626    9.56267340040553
O        -2.16742961585860    0.29286568246775    3.90900862942890
O         2.60426422257264   -1.80821859492296    2.50317969824840
Ir        4.46131827634832    1.48168543053176    8.36344792059650

