63
CSD_code = EJOSOL | q = 0 | S = 0 | Stoichiometry = C32H27BrNiP2 | MND = 4
Ni        0.23923441334284    3.22845096328586    0.43493305346360
Br       -0.74638273521576    4.53518083694299    1.97041997616534
P         1.40390411858531    2.09968520783694    1.80673179477605
P        -0.70216372832316    4.09635560142189   -1.25117776394172
C         1.77004256708176    0.51940300631753    0.93977956330137
C         0.40213163719551    3.69385521884117   -2.66986046461697
C         3.03758086647244    2.89683748803507    1.86894463088785
C         3.23175816690014    4.05771112973669    1.13079778387325
C         4.46411594404074    4.68395070507360    1.12692403136123
C         5.50606627281831    4.14948810987775    1.86632927921307
C         5.31435532008960    2.99606114935435    2.61189114177171
C         4.08265037113568    2.36910712027408    2.61825771812536
C         1.12750531410562    1.71289356248024    3.55737430777836
C         1.15738265161334    2.77881176731569    4.45514169684722
C         0.93937208358123    2.55724567570416    5.80072359791595
C         0.68756106548981    1.27433323854557    6.26085906527387
C         0.64712182294937    0.21453287972560    5.37061801421774
C         0.85945466684551    0.42991671278492    4.02028004973034
C        -2.25132369368149    3.21408492916056   -1.58295842943398
C        -3.40675288148074    3.67661504981394   -0.95536680648228
C        -4.60068144856576    3.00247979249706   -1.12426847997297
C        -4.64745774999978    1.85945238750659   -1.90741838145765
C        -3.49479635571267    1.38324220919439   -2.50993242543215
C        -2.29445531830602    2.05102549876383   -2.34364682772839
C        -1.15881495513771    5.82681794453806   -1.57350674029592
C        -0.62388433872266    6.85015056022609   -0.80237904402845
C        -0.92586800705049    8.16800022676749   -1.09900953890360
C        -1.75480896108252    8.46544602808679   -2.16678722962469
C        -2.28530992677595    7.44493584970520   -2.94164628250293
C        -1.98949904445235    6.12777415566186   -2.64922697517152
C         1.11767806683928    2.09282549633560   -0.88990083743968
C         1.77516213021061    0.91314802642964   -0.51276058404920
C         2.39747063307332    0.11349085865837   -1.46114137220044
C         2.37336891134608    0.46316275566031   -2.79833679795509
C         1.72392976671019    1.61866434180726   -3.19077817621755
C         1.10336706175745    2.43079441462772   -2.25152251618447
H         2.71316190842504    0.07034783141798    1.26546638629870
H         0.95717205547365   -0.19195917184318    1.12562052096014
H         1.12144990045967    4.51598516843627   -2.77374331832572
H        -0.13991681369668    3.59873762134520   -3.61548130684661
H         2.39666375647479    4.46878787196419    0.55995105517560
H         4.61260401184789    5.58690882715612    0.55322687902494
H         6.47079307952422    4.63511591502986    1.86718096513159
H         6.12929636983060    2.58729741447074    3.19150294506611
H         3.92493137417189    1.47535528043786    3.20717132829246
H         1.33782429507969    3.77959340431668    4.08804100547929
H         0.95964207332079    3.38709802643257    6.49071937752287
H         0.51584429622075    1.10044274735478    7.31285863218551
H         0.44466991602691   -0.78509540671436    5.72763683414628
H         0.81666121696579   -0.40420624095472    3.33457900175965
H        -3.35649147045924    4.56066054826209   -0.33288449287950
H        -5.49546937845631    3.36470110466113   -0.64005941438135
H        -5.58140180735540    1.33315480500332   -2.03983104701304
H        -3.52815701156510    0.48404881739812   -3.10834205267717
H        -1.39303960218340    1.66179255071254   -2.79670890772914
H         0.00859996522943    6.61235292752280    0.04161202642057
H        -0.51668775267973    8.96138537017513   -0.49185063713515
H        -1.99349352443897    9.49334846143563   -2.39709223404028
H        -2.93345501754289    7.67841402055221   -3.77399097185875
H        -2.40802075782433    5.32855984267698   -3.24637438400973
H         1.69687847775803    1.89900420191302   -4.23524829442539
H         2.85674986433380   -0.16400929679585   -3.53296568035333
H         2.89977586689414   -0.79095354097400   -1.14587424701551

