63
CSD_code = EJOSUR | q = 0 | S = 0 | Stoichiometry = C32H27BrP2Pd | MND = 4
Pd        0.09251081607892   -3.35579448356564   -0.50461748600555
Br       -0.84417343462704   -5.03204158895213   -1.96402459239027
P         1.21906934209329   -2.16450028589822   -2.02278973496331
P        -0.80457512615429   -4.12308087318100    1.36715180182655
C         1.47490199248926   -0.55206642218667   -1.17779856996911
C         0.38123270871601   -3.58877353832497    2.66794902754123
C         2.88698259391169   -2.89486921211739   -2.01163650550653
C         3.10034286614777   -4.04315034108753   -1.25345140094573
C         4.35877051936832   -4.61490847347802   -1.20182393227693
C         5.40484300892846   -4.04521604530446   -1.90890277900160
C         5.19322681835997   -2.90914167509477   -2.67445889252842
C         3.93736187370030   -2.33456206307610   -2.73028555036233
C         0.97925493628289   -1.82149114821375   -3.78745817550572
C         0.83294402513176   -2.92998525703952   -4.61986960143347
C         0.65621424546158   -2.75467131046932   -5.97854869277766
C         0.62184486923120   -1.47643434497627   -6.51365176675716
C         0.75697026822154   -0.37342765092070   -5.68710070212355
C         0.93172877341996   -0.54017845065406   -4.32452736685367
C        -2.29543803354319   -3.14055661409160    1.68151351392407
C        -2.79994666740757   -2.41927625258035    0.60094512158119
C        -3.92327680756480   -1.62844312775624    0.75943087488152
C        -4.54278099734255   -1.55146754716196    1.99625379279409
C        -4.03879466478721   -2.26004446978228    3.07538961050006
C        -2.91703633550935   -3.05416189197057    2.92286887435218
C        -1.18990144652415   -5.85393490836921    1.73458800996703
C        -2.40216383193533   -6.31320926100902    2.23146149076641
C        -2.58706967911058   -7.67100112870893    2.42646717673324
C        -1.57815606688830   -8.56695550990826    2.11532255200798
C        -0.37636627779603   -8.11229006643234    1.59432142472421
C        -0.18534456321645   -6.75951559781296    1.39927308956532
C         0.93826101353708   -2.04455559709559    0.76856580981918
C         1.53362747489787   -0.87131671526346    0.29506633023515
C         2.16099937825478    0.00329881789447    1.17241842290319
C         2.19566239245880   -0.26920922486337    2.52754706296720
C         1.60813103400523   -1.42397852402527    3.01007072315397
C         0.99014904312239   -2.31309750167312    2.14061808909011
H         2.37677642088900   -0.03804245292367   -1.52607108710909
H         0.60337571699902    0.08388957124929   -1.38363973265820
H         1.14818051172035   -4.36796876115463    2.77184275333054
H        -0.09940727610532   -3.45325031196391    3.64175809255747
H         2.26084843198160   -4.49947115780933   -0.70657095926525
H         4.52551595659864   -5.50658765975491   -0.61537548213482
H         6.38766747537498   -4.49119748076370   -1.86923099971323
H         6.01012870402803   -2.47337676777930   -3.23108797772354
H         3.76357004898137   -1.45502057130734   -3.33609484825454
H         0.84222101531044   -3.92359441253250   -4.19117823498775
H         0.53989876191998   -3.61517855644077   -6.61983695813788
H         0.48359696399130   -1.33816746062394   -7.57585300995725
H         0.72434004237563    0.62292455873915   -6.10424848913100
H         1.03084328416798    0.32681973322936   -3.68695774284347
H        -2.30393652377166   -2.48672224272167   -0.37800056409265
H        -4.31739692459158   -1.07325557199249   -0.07872762894524
H        -5.42070571260088   -0.93520357141625    2.12192762576554
H        -4.52258479866003   -2.19209123366210    4.03899705736881
H        -2.52153210805885   -3.60386668586660    3.76655013697684
H        -3.19929344735121   -5.61765703227968    2.45155190054367
H        -3.52875268474128   -8.03164858599885    2.81385175003390
H        -1.73414615206592   -9.62518001495674    2.26326076455526
H         0.40019415511313   -8.81395193920310    1.32884131553029
H         0.73634594633550   -6.38656881604868    0.96009519786466
H         2.62155781550927    0.90449976443507    0.79085669782153
H         2.68093222099463    0.41667720729429    3.20612746740803
H         1.63465609424938   -1.64270126258805    4.06893590526794

