32
CSD_code = EJOSAY | q = 0 | S = 0 | Stoichiometry = C16H8MoN2O5 | MND = 6
Mo        1.83458720598376    3.66818225050007   12.39180635167912
C         0.03223675778784    3.57238493610845   13.16880541698345
C         1.29436578379153    2.35125049326889   11.06546472070586
C         3.64063677029797    3.65101940831429   11.61733922563863
C         2.37577482913609    2.23309410454991   13.58351040519941
C         2.14885270613144    6.52364441977224   13.23464478110456
C         2.45268004650180    7.67138608033770   13.97019747376281
H         2.25031448525368    8.64087112865280   13.54265324133290
C         3.00503356595872    7.52405886314917   15.22552976723280
H         3.25434407093700    8.38550764434279   15.82485725700415
C         3.23226034748612    6.23359226591981   15.69777014774346
H         3.66256014222167    6.07201015666039   16.67306008972411
C         2.90114085848137    5.15082305218978   14.90398876144876
H         3.06842488920963    4.13917110803042   15.25068558572201
C         1.57455331224905    6.54357639267197   11.92326678774552
C         0.73677111524933    7.18438722461317   10.05260148506778
C         0.24091933841421    7.87496538004816    8.96252051571262
H         0.21211720201072    8.95194301745847    8.94424747103266
C        -0.21284484404472    7.10679192920523    7.90536243361462
H        -0.60938572293961    7.60147881980311    7.03213623786956
C        -0.17360407403685    5.71133456135955    7.93439209776979
H        -0.54180762848796    5.16223012356526    7.08158206068372
C         0.32167198694187    5.01927249190472    9.02086261672436
H         0.35601299879306    3.94196579364057    9.05254632503258
C         0.78220303202068    5.77485531026003   10.09213489100795
N         2.36795886833828    5.26858895778669   13.69060258558497
N         1.32289524255341    5.41732368499237   11.29959741666393
O        -1.00961220814213    3.44168788043929   13.61657270304147
O         0.97874801915221    1.58037547110489   10.27921564893401
O         4.68995901487822    3.56709134895800   11.17579990497987
O         2.70274915055871    1.40497720758534   14.30527950138995
O         1.24478273732779    7.65605849281210   11.22516609186955

