63
CSD_code = EJOTAY | q = 0 | S = 0 | Stoichiometry = C32H27BrP2Pt | MND = 4
Pt        1.30421436037200    3.78791408467343    2.34930518624867
Br        2.88226432296199    3.55370832170319    0.48016740400610
P         2.75281113590901    3.16930783639867    3.95149813861971
P        -0.53893536317505    4.44186678355275    1.21182153443603
C         1.66254756308869    2.57082557825484    5.31110958348140
C        -1.57479707531922    5.21742137464018    2.51944356491299
C         3.55467177797446    4.62992156640030    4.65921431349836
C         3.38453320191334    5.83847700252956    3.99318915355909
C         3.95433598627779    6.99430908864557    4.49484330600069
C         4.69491177558007    6.94420402039535    5.66429460632673
C         4.86472887228842    5.74130854354864    6.33317915749086
C         4.29696198408301    4.58360771546917    5.83503683997867
C         4.05141939816573    1.91768647373557    3.77351821654571
C         5.40660670031405    2.22198437179091    3.82477545865181
C         6.34242315927000    1.22913537584211    3.59517184573571
C         5.93469275463836   -0.06030176983521    3.29778382098886
C         4.58391808047685   -0.36022021221979    3.21447391148843
C         3.64550317764652    0.62642672840066    3.44348232995004
C        -1.47034707833967    2.94200230594539    0.78736946721103
C        -0.92269710041716    1.71002350445471    1.12529783166871
C        -1.60677257627573    0.54370631293287    0.83731649012769
C        -2.83877316064933    0.60641022007054    0.20718107694273
C        -3.38425092920805    1.83302426802455   -0.13919108948941
C        -2.70284854879244    3.00112732339234    0.14681674537804
C        -0.73779011019997    5.44121927540112   -0.29063275572923
C        -1.53447615761714    6.57805324200941   -0.36549141659549
C        -1.63823021252672    7.26694666025670   -1.56136105892308
C        -0.94678747113143    6.83257148881353   -2.67995633657681
C        -0.14388813584299    5.70519815013459   -2.60557217481018
C        -0.03791668448628    5.01044832953485   -1.41634287087669
C         0.02302375562607    3.89402273693453    3.93553351768107
C         0.35050096686607    3.29895789970428    5.15941470272550
C        -0.53549928983878    3.35250497558339    6.22682803826555
C        -1.76009529255022    3.97944281137838    6.08962196591676
C        -2.09941502656562    4.56515611064563    4.88364723135097
C        -1.21620038716375    4.53262635321247    3.81377200065351
H         1.51040711876703    1.49196886574983    5.18998346713026
H         2.11377531807056    2.73911553997428    6.29354079125538
H        -1.30275232598472    6.27835430692422    2.58365982876450
H        -2.64362886362924    5.14178680942033    2.29667132761101
H         2.80162755548572    5.85828004482916    3.07303485009792
H         3.82469027660218    7.93193328490623    3.97508062196857
H         5.14353460065299    7.84444186473173    6.05781741433244
H         5.44348406018161    5.70782311852814    7.24491807164962
H         4.43336256760531    3.64225331497888    6.35121741676238
H         5.72682131793245    3.23244608796698    4.03555459774925
H         7.39517413759107    1.46659740586056    3.63866259811586
H         6.66970919653963   -0.82990029626701    3.11465868159232
H         4.26572128702583   -1.36041933121747    2.95956339865852
H         2.58838649797349    0.40745448140048    3.35113825834492
H         0.05402489068546    1.68022643147088    1.61012379230289
H        -1.18031429156617   -0.41384119017350    1.09753217488137
H        -3.37454501102208   -0.30318568497656   -0.02117932152188
H        -4.34210288118597    1.87646105555260   -0.63700455404646
H        -3.11860527971688    3.96032164299522   -0.13217902142231
H        -2.07610644054067    6.92797865832526    0.50162191963976
H        -2.26117880457453    8.14811010856621   -1.61872520984655
H        -1.03074046046451    7.37684816188999   -3.60906687500917
H         0.40367274289937    5.37001409460781   -3.47342661886657
H         0.59905544764273    4.13940230824992   -1.34637732673203
H        -0.26652728233597    2.89312137197711    7.16823023032266
H        -2.44870631470336    4.01189843470667    6.92089887673273
H        -3.05618743326435    5.05708425668273    4.77319087269874

