67
CSD_code = EJOVOP | q = 1 | S = 0 | Stoichiometry = C24H37ClIrN4(1+) | MND = 8
Ir        7.10564747295007   16.88274346202779    3.64139284421504
Cl        8.73990273622327   17.54665082747987    2.04656586921526
N         8.61685427990431   14.22573733300360    3.13227178760599
N         8.26399992256781   14.59261159795106    5.22046871998294
N         8.94750285574363   17.54086414148361    6.15637749627779
N         8.56584831239333   19.24586103026154    4.90409323964906
C         8.13955209744211   15.14506527352878    3.99260278308299
C         8.83653769524829   13.35442567396657    5.13154428471369
H         9.03224823795201   12.74365859027731    5.98815016690717
C         9.05489089953028   13.12665867819339    3.81700744151410
H         9.47904730700173   12.27378150782857    3.33181818144695
C         7.95656702267233   15.25631443142755    6.45794340253791
H         6.99943174050491   15.77202809000897    6.37037850586610
H         7.89007049497112   14.50156726782642    7.24339775210328
C         9.05013583314756   16.25724376687143    6.81906044439284
H        10.02831782902723   15.81805666229079    6.58782575981910
H         9.01166102603412   16.44941903468239    7.89528394943621
C         8.28620334972560   17.92799536461845    5.03395145895405
C         9.38878625808501   19.66604029721302    5.90705685229213
H         9.73537523969304   20.67359210771150    5.99120113793438
C         9.63045452307161   18.59962219268079    6.69590534000538
H        10.22288033079015   18.50881474961939    7.58213832313381
C         8.73369762935988   14.33257873945597    1.68449805039100
H         8.15409651552946   15.20755647511315    1.38695041293419
C         8.17454883761040   13.08511776082081    1.00589050359881
H         8.85182812619061   12.24083394659398    1.10395501633168
H         8.04375928853159   13.28307206223821   -0.05407623926981
H         7.21167512776193   12.80538319397886    1.42696226152408
C        10.19502641844040   14.56260749235863    1.31007547194334
H        10.54605607129838   15.49621356560694    1.74043364625532
H        10.28521028298269   14.63044706987007    0.23048927545364
H        10.82252362290503   13.74715805077854    1.66163216258993
C         8.10351859972230   20.17770367578287    3.88527189819829
H         7.41732333500008   19.62587459336546    3.24211038505910
C         9.27901363883237   20.67047566234199    3.04590446271675
H        10.00552202667015   21.20051502305195    3.65588400268887
H         8.91338718478329   21.34828710519072    2.28028907499517
H         9.76927155102571   19.83393315489823    2.55711824001541
C         7.37601617978432   21.34931421259650    4.54340402874375
H         6.67027088144660   21.00411257382129    5.29419937989390
H         6.83459687482206   21.91063218494551    3.78714301504150
H         8.07781037074411   22.02936744729540    5.01893313171293
C         5.04102343384169   16.52424259217320    4.37779427156354
C         5.04934331299906   17.90844041109045    3.96323481442744
C         5.34503448885440   17.94748518276692    2.58748386276291
C         5.46713751443810   16.58454827750436    2.11331785110785
C         5.21321198341856   15.71566090966165    3.19761097944691
C         4.45738400422814   16.03940491163733    5.66758619016532
H         4.74338160602782   16.67653756278584    6.50242625705062
H         4.75297610254523   15.01451314899665    5.88112431958516
H         3.36809485383403   16.06069579434662    5.59755641439236
C         4.59389004711161   19.03325139836209    4.83393706178641
H         4.73648860332203   19.99427204866822    4.34923268538214
H         5.11284288178264   19.03918228757062    5.79155614855206
H         3.52873987970600   18.91232506132462    5.03748991473406
C         5.32566082621303   19.12662495091485    1.67261292739140
H         5.25061219954943   20.06287404278667    2.22009384883102
H         4.46466423115690   19.05179352544251    1.00678270322709
H         6.21998606122868   19.15345052363555    1.05043295523451
C         5.58517113636159   16.23294680537148    0.66824531334791
H         6.41004267899767   16.77262955340495    0.20482630992550
H         4.66947569388055   16.51874786419237    0.14860761717418
H         5.74004827607870   15.16699678368548    0.52398224442734
C         4.97107971669628   14.24221181931773    3.13986307124810
H         5.32414544193150   13.82045953005311    2.20321355392068
H         3.89792712215636   14.05760815317747    3.20796993913686
H         5.45166987551886   13.71606079006938    3.96341482327561

