61
CSD_code = EJOZEJ | q = 0 | S = 0 | Stoichiometry = C22H31HfI2N5 | MND = 6
C         0.58400641444933    2.52901433857176    3.82422886538516
H        -0.09516160415468    2.93137683167203    4.54592462908588
C         0.95738758847212    1.24437620176372    3.60906959938695
H         0.66534644405971    0.34291570418522    4.10686564347713
C         2.06046264230955    2.51313221817581    2.13103116273991
C         4.00124090740666    6.17478349349080    0.10483767344495
C         4.45204365434923    8.26832686141891   -0.53732349838966
H         4.93493417478541    9.04563066680983   -1.09319835962938
C         3.50148032673306    8.33801454839083    0.42790341347002
H         3.01447268302719    9.19300481238326    0.84756375626326
C         1.28522243560092    4.71520995977961    2.83246592204443
C         0.57674523007199    5.54852774607314    3.69120167104016
H        -0.08579259368828    5.16086701051814    4.45024764926770
C         0.74718767349602    6.91966540728363    3.57328008873744
H         0.20695202818532    7.57585521687447    4.23882422915598
C         1.61508367433733    7.46754616503654    2.64056964838097
H         1.75310993029895    8.53772871203878    2.60767825034790
C         2.29642432348869    6.60973985186476    1.78489044850385
C         2.11944914411968    5.23075490180460    1.84600694063566
C         2.52003770574741    0.09252693077856    2.04733242307924
H         2.81339225843663   -0.55654996055337    2.87703021770196
H         3.42763369701540    0.42051166297602    1.53077130631879
C         1.62337267384108   -0.67224063515764    1.07123484426437
H         1.22979264138732    0.02418989171631    0.32723102231103
H         0.77341890896931   -1.10095313807244    1.60853624117293
C         2.39999088776367   -1.77911092886952    0.36255589987867
H         3.24742253317120   -1.33995394831681   -0.16715381128631
H         2.79575972210625   -2.47613637333156    1.10417422907504
C         1.51990643919334   -2.53212822685313   -0.62700375058188
H         0.67532776944143   -2.99370241347271   -0.11913880492211
H         2.09094354339736   -3.31259897204205   -1.12240266586820
H         1.13597473182430   -1.85508683212907   -1.38680509443622
C         5.66481918191335    6.38898293262978   -1.67714221018174
H         6.34830580652685    5.70963461486680   -1.15590308115036
H         6.24574973404135    7.20595087862847   -2.11181408007446
C         4.91447859942600    5.62093360435275   -2.76963809549326
H         5.64097893108595    5.07573157343658   -3.37339983270907
H         4.25024532538860    4.88837642376164   -2.29645426252179
C         4.08080132193777    6.53398120462342   -3.66512592065621
H         4.73658780370561    7.22897755576502   -4.19675267109743
H         3.39563076355680    7.12559872534641   -3.05113817101174
C         3.27306631365043    5.72107884139211   -4.66872003132446
H         3.93394844383187    5.13712617982497   -5.30486301447343
H         2.67335679412588    6.37312556795364   -5.29958040415720
H         2.60880643489051    5.03634821623442   -4.14667289931798
C         1.12478391040792    4.99782017561620   -1.19664650450531
H         0.66937098243866    4.92812221269993   -2.19805062242599
H         1.66432591839316    5.94579863478985   -1.14945274925697
H         0.28695815900766    5.04037521454553   -0.47091158895278
C         1.29947420033226    2.65452978160202   -1.15606956044044
H         0.45939682612769    2.52724838983062   -0.43961775220384
H         1.97433425336960    1.80093254547769   -1.06092704745457
H         0.85642611391647    2.60960343406856   -2.16459610439200
N         1.26537568476644    3.29725701949300    2.91834886233729
N         1.86083811436387    1.26000230093717    2.58130803207550
N         3.23070258488517    7.05134526036309    0.81050334836444
N         4.74156765546064    6.94388737836415   -0.71411982653198
N         2.01585746007842    3.89046122517116   -0.96350054062970
I         5.26719910846580    4.05744411794263    2.74675731731803
I         5.04810608486971    2.11665534972071   -0.75739256686523
Hf        3.33003889938872    3.91183293575630    0.59884218769270

