146
CSD_code = EJUBIV | q = 0 | S = 0 | Stoichiometry = C69H64ClN5O2P4Ru | MND = 6
Ru        9.47967240488383    4.34969409099489    7.86544359970909
Cl       10.56217290443483    4.75321134065367    5.73915494377998
P         8.51472825142969    2.40242164203539    7.15713209079189
P        11.20746755369897    2.95535471129971    8.46839488008670
P        10.38674839951249    6.35242194662928    8.59687886867728
P         7.84607520168646    5.73835896515262    6.99140559897663
O         8.10533815283951    0.77873092906126   20.21162239963767
O         1.70311635208311    1.59616860838665   14.54403119964213
N         6.38571522732377    1.56421714912849   16.49437440455099
N         4.42943509816378    1.00123401943173   17.68399363139870
N         4.29507971279079    1.60711608332614   15.41226405307185
N         2.40139097014366    1.05139417265296   16.64964179624869
H         2.10258600872319    0.75576676856879   17.56951231099416
N         6.42944351370382    0.95452079731490   18.75257624386568
H         5.82630813249273    0.66457170226060   19.51585572793635
C         8.56048937648567    2.00391841203548    5.38119578213892
C         7.41722912876503    1.99268981075722    4.58943494544903
H         6.44604604340343    2.15448908881396    5.03534063677289
C         7.52089637477349    1.77394601592791    3.22784527643042
H         6.62616045821566    1.75481208813758    2.62246256265916
C         8.76143450049259    1.59221851636964    2.64076556405601
H         8.83737384660935    1.43151521678248    1.57507172151640
C         9.90585399158379    1.62740440751212    3.42064503616508
H        10.87884679527110    1.50441650052836    2.96729887281621
C         9.80683457038294    1.83301667956536    4.78255357631317
H        10.70445058770406    1.87941888595991    5.38457157567764
C         6.78074013434395    2.01114486944696    7.55205190296510
C         5.94776944081410    2.97664063289077    8.09466703535982
H         6.35278077842965    3.95865298514099    8.30074840405323
C         4.62677365854292    2.68256292629586    8.38532620615900
H         3.98517910143205    3.44382086654309    8.80712631404541
C         4.13081120785906    1.41477132210834    8.13624139992228
H         3.10315544728871    1.17888320751142    8.36963733915602
C         4.95532871378602    0.44690562436168    7.58272420468329
H         4.56656975300010   -0.54028051710864    7.37820723785046
C         6.27239902899986    0.74123548204578    7.28667778335103
H         6.90603108463231   -0.01000132118177    6.83341996054579
C         9.39507974609631    0.92804101507393    7.89920292595335
H         8.64660940875362    0.26927164559979    8.34940608919355
H         9.87859215147266    0.39191183116808    7.07606296472839
C        10.41686220487915    1.35548353286792    8.94865400981041
H        11.17646166596904    0.58786238241167    9.12985115364919
H         9.91054509255435    1.56675046513859    9.89736324271447
C        12.47419946692288    2.48449050763995    7.24453666575137
C        13.24217112989368    3.52953173153790    6.73431197122620
H        13.06424832957486    4.53272699027340    7.09034173372088
C        14.21266140925028    3.29072698049690    5.78138665510131
H        14.79357739921624    4.11363373558405    5.39173904307141
C        14.42941178208731    2.00110415776741    5.32386497217779
H        15.18154914068034    1.80994183841688    4.57233266218569
C        13.67877359450698    0.95507947168154    5.83279354263806
H        13.84771620982440   -0.05345815225040    5.48237826966391
C        12.70413852248286    1.19060832423417    6.78784107030147
H        12.13381602582522    0.35563963555893    7.16830543351948
C        12.25077490336058    3.25336098878067    9.93315747474162
C        11.61173881004472    3.76688259621979   11.05772506321755
H        10.54750518276417    3.94906770677633   11.00639743530132
C        12.32728167274341    4.04959249744772   12.20510877762746
H        11.82290141243761    4.45941800829743   13.06859667097378
C        13.69394853825230    3.82048562604180   12.23833915128370
H        14.25994209901432    4.04800509660459   13.12983856473085
C        14.33375739276329    3.30206207726739   11.12491400505888
H        15.39868872446185    3.12050677536841   11.15066352555637
C        13.62006967126335    3.01774164482146    9.97329366245255
H        14.13218673153726    2.62159177461911    9.10829700118376
C        10.38411130943723    7.04069675725797   10.29288049582037
C        11.11141813850879    8.19584403741815   10.57044322157021
H        11.71811759052854    8.64983466499575    9.79888820194325
C        11.07012903766841    8.75729794966214   11.83207075726021
H        11.64150446498608    9.65046526702024   12.04050148455656
C        10.29917473343223    8.17933040136007   12.82883442162395
H        10.27410016394793    8.61933145857788   13.81509078522890
C         9.56059613790464    7.04212230059566   12.55404309524030
H         8.95098819010732    6.58941490992630   13.32281054556455
C         9.59954954259764    6.47898422751458   11.29023697034044
H         9.02182325566893    5.59321859803849   11.07244620046582
C        12.12411523924891    6.66798764799501    8.14975808680527
C        12.48499038289019    7.13249157162638    6.88875509278700
H        11.72581583616957    7.36673991344391    6.15804121970945
C        13.82161950786124    7.26715195769664    6.55591947357884
H        14.09362501870355    7.62549578564388    5.57360734986156
C        14.80683925684292    6.93579557595122    7.47109876586935
H        15.84910199141333    7.03779882718133    7.20571813197932
C        14.45346855072684    6.47022448627234    8.72792638329467
H        15.21672060949609    6.20759268433155    9.44615487063400
C        13.12054322806201    6.33379922832470    9.06607641120108
H        12.84335728117125    5.97350663569815   10.04743083164296
C         9.47306560153437    7.76207849755187    7.78680402989042
H         8.74082702334273    8.10404905064239    8.53080851166407
H        10.16493929222019    8.58495510511333    7.57970415579111
C         8.74166812848675    7.29546936413278    6.53617292758952
H         9.44661384367887    7.05969862017090    5.73596457745962
H         8.03023539360680    8.04934823886363    6.18237033679071
C         6.97011215106277    5.31238620404020    5.45241430846932
C         5.63515843133699    4.91324633656564    5.48756219641095
H         5.10635898047013    4.87342948692837    6.42921220887064
C         4.97491771271307    4.58067901336845    4.31969155811840
H         3.93765248465014    4.27940767285448    4.35986070474322
C         5.63763442541715    4.63483450563638    3.10456597810400
H         5.11678319198887    4.38263573458298    2.19215947560693
C         6.97030105999751    5.00708143869816    3.06568424200617
H         7.49723696200259    5.03682235224005    2.12316431808741
C         7.63654824042042    5.34091223796793    4.23049330154764
H         8.68311972529600    5.60079057441569    4.18986527880809
C         6.51653793374843    6.54194289437409    7.96074163895634
C         5.61303342299721    7.40506976698875    7.34561369392519
H         5.65165569384557    7.55398038257268    6.27458495240392
C         4.65761106637864    8.05965869781256    8.09924193317842
H         3.95590290123435    8.72413113241294    7.61565527850412
C         4.59707339658595    7.86662581024618    9.47123071292503
H         3.84615487059943    8.37903319549934   10.05454367941394
C         6.45586550536693    6.36022879109297    9.33605490816975
H         7.15952588688713    5.68799779754282    9.80798631558157
C         5.49853754168412    7.01759860936599   10.08915136424376
H         5.45770312256500    6.86280370765370   11.15729117167951
C         8.58305986621746    3.80096426922202    9.57168209670338
C         8.04507233501222    3.36479625240424   10.57441455565736
C         7.44356189175553    2.95125271636662   11.77896760195078
C         6.05597065532379    2.76443470939616   11.85591358381716
H         5.45804360564590    2.92594433328760   10.97063820322047
C         5.46876137876601    2.37844747309068   13.03616504310093
H         4.40243655504279    2.23159582153178   13.11161112743072
C         6.25147524206746    2.16769663183304   14.17808626805351
C         7.63644462538654    2.34949942456408   14.10473207416687
H         8.23142611606186    2.18234863131677   14.98906892558086
C         8.22443308368434    2.73468980878237   12.92441222849847
H         9.29576713974733    2.87343215842097   12.86842148125946
C         5.61931260917403    1.76260447664304   15.41443496487527
C         3.76009399243212    1.23369241943773   16.55319091537686
C         5.74823460527583    1.18832453501147   17.58824069069880
C         7.76968310952839    1.04608101959671   19.08254219881218
C         8.70835971765906    1.47872775053104   17.99057775720727
H         8.37182565382529    2.44739071767284   17.61647054700399
H         8.61624022603800    0.77137491236825   17.16421459299174
C        10.14544888497157    1.55340288153621   18.48902892030577
H        10.80800223849464    1.86611941007452   17.68600581568647
H        10.46808644987217    0.58243183864292   18.85544474015069
H        10.22365219583803    2.26294636212148   19.30862674909726
C         1.45149641079763    1.23997263189433   15.66100776854098
C         0.05178705690158    0.93528142949374   16.17254892663509
H         0.02075031439820   -0.11294577240133   16.48126347187146
H        -0.14019386901447    1.55136103331168   17.05455219228307
C        -0.99832430638774    1.20106414177454   15.10218037878402
H        -1.99123884182871    0.96031317784440   15.47351531332048
H        -0.79353662715361    0.59910378189788   14.22099724014885
H        -0.97505609834269    2.24660540370786   14.80671824581627

