158
CSD_code = EJUBER | q = 0 | S = 0 | Stoichiometry = C73H72ClN5O2P4Ru | MND = 6
Ru        8.88640070195512   -4.58141066994922   12.97991506423329
Cl        7.82173406846709   -5.62690021911088   11.07338699882303
P        10.40863487955667   -3.88348124603851   11.38252526168411
P         7.79919403498395   -2.62173555635424   12.39358587405808
P        10.01423557305069   -6.48119194377838   13.55417608139724
P         7.27400366696104   -5.44710545707843   14.37682153379657
O        16.77958474377169   -0.06923746865823   23.30584374405332
O        10.11606486380834   -0.36900865953047   22.69884416269437
N        14.38896007543027   -1.51275600523395   20.20090343373515
N        14.28502492478801   -0.52753805226836   22.33786830497990
N        12.30025199151395   -1.07967616228624   21.19307999154198
N        16.31709581800945   -0.98944841289825   21.28076514912530
H        16.69960061232939   -1.37406065345288   20.42896645922629
N        12.28904887027000   -0.09970604656823   23.31481867395838
H        12.92369792271154    0.22968491577651   24.03011301077665
C         9.39894431382243   -2.97278849607508   10.12366157444147
H        10.05499427412522   -2.52966234673759    9.36646916104551
H         8.72655069805761   -3.68884585416606    9.64619751973848
C         8.61467070331542   -1.90745933323397   10.87655198627900
H         7.86519031590629   -1.42051951064965   10.24418713894514
H         9.30620635920979   -1.13920612690166   11.24832518300699
C        11.33171288367792   -5.08260592944866   10.36788011130070
C        10.67997344892709   -5.83181093010933    9.39216938329534
H         9.61842822307145   -5.71501290107140    9.23817981258713
C        11.38138866243773   -6.75277916416897    8.63581915563908
H        10.86430581733874   -7.32581223946844    7.88006706654271
C        12.73631531988628   -6.94300590858672    8.84516320426851
H        13.28392059225705   -7.65758027076159    8.24771101386645
C        13.38720757985981   -6.21700891336123    9.82896511637447
H        14.44282145555349   -6.36760856667726   10.00647670556614
C        12.69142108566193   -5.29552136412097   10.58871083946703
H        13.21111098232241   -4.73079773122879   11.34946243950113
C        11.65715162595280   -2.56573318352783   11.62762341649327
C        12.52056639611166   -2.19894397022212   10.59841876481481
H        12.50471166498032   -2.73969722470470    9.66145130005191
C        13.40633940731605   -1.15337023514059   10.77710871164857
H        14.07812104216819   -0.87693799455166    9.97699508437540
C        13.43463574168644   -0.45855575512973   11.97693403280208
H        14.13111840014426    0.35624699487038   12.11101860799966
C        12.56909843533118   -0.80959625327592   12.99824099889432
H        12.58226619062711   -0.27081303581347   13.93433626833069
C        11.68217651841869   -1.85743020993096   12.82192867482117
H        11.00659902754228   -2.14475699879112   13.61620393115657
C         7.68817561861821   -1.06293296923179   13.34506043924154
C         8.47017344228141   -0.85714176383956   14.47269675593775
H         9.12523689631658   -1.64552461675377   14.81132781217752
C         8.40758672649148    0.34194849821832   15.16145987957364
H         9.01447361437335    0.48468457860959   16.04388827347275
C         7.56921116163779    1.35039855616014   14.72065376123776
H         7.51324587936993    2.28532097678172   15.25882281327351
C         6.80148291475136    1.16016730044115   13.58195736653319
H         6.15259282351344    1.94932186564151   13.22986575884098
C         6.86064884780833   -0.03674292853315   12.89476081869552
H         6.25433835681797   -0.18101264476554   12.01088295751746
C         6.07389529222139   -6.66261797544821   13.73841616008597
C         5.94450150365399   -7.97164286777551   14.19180849346442
H         6.56100080053610   -8.34586360164132   14.99622841827264
C         5.01350392238771   -8.81749430496398   13.61287138413625
H         4.92281010169018   -9.83385671291057   13.96965289955730
C         4.20643096946950   -8.37063128920784   12.58052290132869
H         3.48913072964819   -9.03980509469406   12.12796925813870
C         4.32166498362817   -7.06508549777341   12.13172111129680
H         3.69538259052801   -6.70623909376124   11.32830304878509
C         5.24863600184647   -6.21818098507689   12.70695121294973
H         5.34733479284783   -5.20184804062617   12.35751391910931
C         9.25839109962256   -7.26076793007972   15.07703519031498
H         8.82960297845282   -8.22080302236604   14.77146538539727
H        10.05670310511699   -7.45187150184277   15.80037427939875
C         8.19425521273531   -6.35858473957304   15.69505872763342
H         8.67218871847095   -5.57664736953577   16.29586918043097
H         7.50247884629409   -6.90974711620485   16.34041148311394
C        10.01274120040893   -7.87581217800844   12.38324574085515
C         8.78918271645860   -8.46713175582159   12.07673359228197
H         7.89000810794666   -8.13403872094496   12.57737846217270
C         8.71245573681410   -9.46054518065044   11.12072243509549
H         7.75624833371248   -9.90604035011985   10.88715960305577
C         9.85650383927676   -9.87201706549710   10.45676232971246
H         9.79778616662505  -10.64863281982340    9.70793721273622
C        11.07316521264056   -9.27835166417549   10.74633582879002
H        11.96663318288729   -9.59015574795262   10.22478374480509
C        11.15331794234156   -8.27528612009180   11.69506627618537
H        12.10418357242846   -7.80382518766853   11.89959487976533
C        11.77479786755955   -6.43366019046861   14.01952540904088
C        12.39081936135581   -7.57105893713550   14.53739642386000
H        11.82200339474124   -8.48343199672312   14.66050319437637
C        13.73065319451837   -7.54129151334056   14.87326858964674
H        14.20376575464812   -8.42505287978168   15.27668794460241
C        14.47099255458823   -6.38365902613219   14.68705702089458
H        15.51867060996384   -6.36579068088907   14.94960578443433
C        13.86654351096199   -5.25561344800033   14.16055441624740
H        14.44267930981123   -4.35390319797348   14.00322833543647
C        12.52203400892951   -5.28188679603069   13.83157586466343
H        12.03230377040403   -4.40104802081458   13.43711295734263
C         6.18502353250497   -4.40305020820735   15.39945890765446
C         6.77748153060964   -3.30701116683997   16.02014432102784
H         7.83713645689986   -3.14635857032941   15.88053239559358
C         6.02194334372089   -2.43948747109503   16.78480609992285
H         6.48907046963144   -1.58620756679068   17.25482628234834
C         4.66215665493763   -2.66120130124278   16.93705280484502
H         4.06549187718528   -1.98140119500473   17.52743236584595
C         4.06912837611980   -3.75530660035554   16.32978483156338
H         3.00981754523463   -3.93134523485521   16.45106665799476
C         4.82256859802126   -4.62641423456867   15.56177708484932
H         4.34628148171235   -5.47116861326214   15.08550923520951
C         6.05539554904105   -2.78418466427127   11.89286799189346
C         5.06668619308924   -2.59024299601025   12.85661156949527
H         5.34736358689327   -2.26963494062446   13.85077011705069
C         3.73683329660994   -2.79647095099829   12.54271092345278
H         2.97933296741518   -2.64316564134816   13.29767503520613
C         3.37963810104027   -3.20380763206328   11.26690384827754
H         2.34022795671783   -3.37007622296750   11.02363202399140
C         4.35740541447784   -3.39930986169658   10.30582325016645
H         4.08276882374472   -3.72095602146195    9.31155949842165
C         5.69088689958840   -3.19401077305931   10.61416677518351
H         6.44662337460237   -3.37523233361072    9.86511887566089
C         9.80858359442838   -3.91313044536830   14.63205228871617
C        10.38627424114362   -3.58780693167160   15.65388003789177
C        11.04741631681887   -3.10032379610534   16.79982949473094
C        12.44813607092667   -3.08092692276380   16.84649006013396
H        13.00375600984906   -3.46912503016543   16.00499093522266
C        13.10025499177271   -2.57747526922375   17.94595945122947
H        14.17849812284233   -2.55676549302458   17.99071135497927
C        12.37367352818701   -2.07747022949105   19.03060279400187
C        10.97574606800039   -2.10098474327318   18.99251821966311
H        10.43323754433767   -1.71350426211810   19.84109192219768
C        10.32226748634746   -2.60559023116277   17.89325486733338
H         9.24125808373381   -2.62325013154880   17.86336822399824
C        13.05387667468970   -1.53504306735505   20.18954999369005
C        14.94120898478857   -1.00049947891202   21.29603939020217
C        12.95502805645333   -0.59529615669087   22.22446496824778
C        17.16308222405923   -0.53789658789709   22.26492037273062
C        18.66199998616236   -0.63866418569566   21.93530335642718
C        19.00071085096781   -1.46205756721708   20.69241355157228
H        18.60284460458148   -2.47291592949992   20.76383993159151
H        20.08336917000629   -1.53910400234342   20.60715749574175
H        18.63748054168875   -0.98996419012128   19.78076053470803
C        19.14753667801787    0.80525151733764   21.74718529644646
H        20.22314793345901    0.82256705683707   21.58548750575282
H        18.91626680442973    1.39232354254939   22.63215172756374
H        18.65957065833972    1.26642968982054   20.89046017993904
C        19.34684844168591   -1.25688205994093   23.15935463225274
H        19.05825316703066   -2.30024531517397   23.26959621944350
H        19.04954123468422   -0.72208057127964   24.05731400160625
H        20.42818096361846   -1.20284972141693   23.05738336622928
C        10.92772219371330   -0.00762872735508   23.50834608415003
C        10.55942025386061    0.60900982394317   24.86583421672225
C        11.10475803284415    2.03978893471122   24.94358671097402
H        12.19206109437565    2.06442921999324   24.92851499434110
H        10.77007065119153    2.50823664732177   25.86704973051094
H        10.73628982060570    2.63038374866669   24.10751873238516
C        11.13530321915903   -0.24964168441739   25.99766102682864
H        10.79913399178261   -1.27963045286934   25.89926747381244
H        10.79108608645584    0.13241255896193   26.95672002051984
H        12.22294730573074   -0.24269134976787   26.00460940948896
C         9.03378713519304    0.63951757030101   24.97460899895943
H         8.63073568119214   -0.36712872235511   24.90191084190631
H         8.61068282256146    1.22805923690947   24.16491957358185
H         8.73014345504777    1.07422676872333   25.92383243253233

