112
CSD_code = EJUBUH | q = 0 | S = 0 | Stoichiometry = C40H64N5Si2Y | MND = 5
Y         8.72435453209446   -0.53888050314258   33.76420854839468
N        10.80430602620273   -1.20726770281498   33.05913144186968
Si        6.66362721632143   -3.22397090865291   34.68140738404585
C         5.03411565343828   -2.70583622544991   35.55209438413896
H         4.55807402657248   -1.87943819725904   35.03670867766761
H         5.21287296266348   -2.39981190948152   36.57634697407325
H         4.32831882158584   -3.53070093988522   35.57332380259231
Si        8.84301145137777   -2.44704813909167   36.56418392555969
N         9.95134814256709    1.34087039289173   33.98478771411757
C         6.85632349581446   -5.08953349783154   35.06473870948588
H         7.83553602625046   -5.45952222796523   34.78377158317070
H         6.11335195331120   -5.67697028075021   34.53407367049459
H         6.72545897873745   -5.27844304267701   36.12435533203445
C         6.30682656036583   -3.13085220482117   32.79586478148688
H         6.61052292940936   -2.17295322136752   32.37947676343880
H         5.24314561278646   -3.24440221311712   32.61158294345943
H         6.81267308483628   -3.91741898122962   32.24469723767618
N         7.43488637806250    1.02111784733656   34.80171934419862
N         7.33081908397864    0.29823088238023   32.14099194716472
C         9.60203165796548   -4.16672683001444   36.92051376345749
H        10.26280978646593   -4.12421739309559   37.78114863365099
H        10.18532980864220   -4.51794157852399   36.07609783400620
H         8.83880498567624   -4.90576188512409   37.13050573412839
C         7.72656704109685   -2.04856922497250   38.07672923539700
H         8.29970519728277   -2.02018336239700   38.99841113958268
H         6.96074208616438   -2.80758920618399   38.19249646321181
H         7.22551108100782   -1.09100598143857   37.96917973279965
C        10.33571946656958   -1.23801740216747   36.65896741625872
H        10.30024503708734   -0.63002839158704   37.55918797983892
H        10.37580489938470   -0.57136184445446   35.79458414446501
H        11.26690049874725   -1.79429752266538   36.68214383997152
N         8.04849057953143   -2.26116300568795   35.04515161376747
C        11.36007591541906   -0.45238329957880   32.11436106586989
C        12.37192462510349   -1.05642070427923   31.16477334019915
H        12.41531724222541   -2.13717832042148   31.27546925896050
H        13.36503264586990   -0.65099454167099   31.35145246933558
H        12.09974988746821   -0.80794362035135   30.14077669723347
C        11.08322592348448    0.90157820916969   31.93672657928803
H        11.50184447549826    1.35460697814381   31.04972527473611
C        10.48438114532764    1.77828778845052   32.86026223681193
C        10.59146337059972    3.24911395089975   32.52425177633237
H         9.61255459963419    3.72145817652816   32.54834023452585
H        11.00468110666526    3.37838532663389   31.52884096643668
H        11.23421240166518    3.76279203800776   33.23728163388702
C         9.45422349950195    2.28790633710532   34.96961605384707
H         9.05013643345176    3.18034280151058   34.46847956736964
C         8.27351229528141    1.68085842178437   35.78642776450890
H         8.66700800493435    0.92372845090370   36.48725574610505
C         6.15176509719522    0.76834901295846   34.85230046079917
C         5.28565281447579    0.93002722547083   36.08090421126843
H         4.96840923087577    1.96551503102994   36.19872818925412
H         5.82443004471526    0.61461533958630   36.97115728329181
H         4.39411662549862    0.31644167813798   35.98654431559672
C         5.47829184601599    0.39484165143757   33.66898211362162
H         4.40807969171458    0.26288424116853   33.73925848631067
C         5.04176555884987    0.34557907961425   31.23575621974758
H         5.55099335020603    0.50950759335136   30.28884003791491
H         4.27240384635210    1.10382836274731   31.36508737073570
H         4.54862118808363   -0.62583689158403   31.20145705796768
C         6.02220357761450    0.36055881819722   32.38958594444205
C        10.55171209635976    2.74053929220279   35.94118926022436
H        11.42134785499060    3.09594907768717   35.38545976287532
H        10.87187050141540    1.88855723947061   36.54428894934399
C        10.00628429105464    3.84804878806391   36.83610720349834
H        10.76720784090909    4.15776384791056   37.55553313976105
H         9.75425569042383    4.71682900093911   36.22289650320453
C         8.76160390673420    3.37042457037879   37.57646520692174
H         9.04313023304923    2.57677912750430   38.27276467219441
H         8.34319913475980    4.19238776084046   38.16185794484350
C         7.69200645218349    2.83162020372720   36.62423372896274
H         7.33976227274308    3.62530033010433   35.96071775795265
H         6.85122972901363    2.49681970846678   37.22593229743038
C        11.55294641017110   -2.29521030820401   33.56451518454787
C        13.20864345172024   -0.61948298737691   34.50342254123757
H        13.74668471882157   -0.54352886388552   35.44629029080284
H        12.37989054803021    0.08657700742508   34.50787225969292
H        13.89239649544235   -0.32937650088693   33.70485256846587
C        12.72047306225782   -2.02492634497434   34.29840072532628
C        13.42652816693345   -3.07374953939508   34.86736711423445
H        14.31838153447529   -2.85231403096631   35.43801173252238
C        13.02037867115415   -4.39104008803526   34.72828726819718
C        13.77633280757644   -5.51191419521937   35.37611255838863
H        14.79539165891501   -5.21170960760581   35.60838578063633
H        13.80499032537766   -6.38529978230160   34.72750642694158
H        13.28632048410492   -5.80217766505323   36.30625247181322
C        11.87212197917216   -4.64435754979818   33.99222376284375
H        11.54289131997323   -5.66680247734387   33.86459080957236
C        11.13726931343188   -3.62487964155486   33.40954801613243
C         9.91079501828162   -3.94876986220274   32.61379358696530
H         9.05446472454907   -3.41212848869825   33.03110576992725
H         9.70262939749263   -5.01563411178971   32.65228300447301
H        10.03937686370401   -3.66244405075131   31.56939601779146
C         7.84345101333805    0.84653532232349   30.95226494298941
C         8.51884291529310    0.05972611468630   30.00868118313507
C         8.56885325601824   -1.42976723067882   30.17507884011632
H         7.57505443531645   -1.86121722124425   30.04397025954358
H         8.91813949211702   -1.68395660760730   31.18234000295068
H         9.23633765612827   -1.87538748482515   29.44019402510450
C         9.11285290742388    0.66159606363856   28.91048226487942
H         9.63158046756867    0.04207188367800   28.19119776984224
C         9.04910245342474    2.03070116310802   28.70737510907311
C         9.70013093377809    2.67834331029582   27.52149056270486
H        10.19236132793386    1.93815563232686   26.89568360386631
H        10.44230803800167    3.40790296351357   27.84470748834643
H         8.95978261565311    3.20402161925705   26.91929867325611
C         8.35668172606695    2.79843089093688   29.63414960397698
H         8.29018075172733    3.86785375532619   29.48535701021226
C         7.75114478243385    2.23546089323613   30.74357637780808
C         7.01779055944793    3.10357919882782   31.72388564797194
H         7.19257010876757    2.75519520145112   32.74228661437325
H         5.94372170704388    3.06559263531195   31.54214902943840
H         7.33508439162195    4.14055760389245   31.62804162061306

