67
CSD_code = EJUCUH | q = 0 | S = 0 | Stoichiometry = C23H38NO4V | MND = 5
C         0.77253038579581    6.25420565429690   20.22126815403837
C         0.70541472219078    5.20785291144881   19.25982024139212
C        -0.18465363205163    4.17867292901126   19.47758686350738
H        -0.24562741378226    3.39060944089821   18.74642880244043
C        -1.02859709486995    4.09291759472930   20.59550445363007
C        -0.96603283506954    5.11033853119626   21.51813685965890
H        -1.59447277502636    5.11459618216983   22.39476780735790
C        -0.08698963561555    6.18878138818196   21.34824328635624
C        -0.00160825768099    7.21052972337540   22.34637322331996
H        -0.57957021829119    7.04541266333368   23.26620831782776
C         0.86742572195652    9.20174742060401   23.29180747313178
H        -0.00580059544159    9.20291285379250   23.96436146880256
C         1.00926395777857   10.53208844848130   22.51949112903220
H         0.01493704225541   10.82578489849055   22.13192737966268
H         1.40088528933790   11.33592103699721   23.16242507625798
C         2.15360529485925    8.91689166442635   24.10774597932991
H         3.00401169628141    9.17922817280434   23.46493461608045
C         2.27055896546746    7.44316868031209   24.49607612791978
H         3.16815018805295    7.29053619096328   25.09179244245121
H         2.33547634051112    6.80448791341502   23.61663710637669
H         1.41213498606744    7.13337873491622   25.09082634913836
C         2.18346330871071    9.77768928744074   25.36898225100216
H         3.11330749517440    9.61364437256410   25.90886906395227
H         1.35594052406862    9.51538182445727   26.02609122429595
H         2.11164500276049   10.83587905809385   25.13322741337630
C        -1.96507877645441    2.90093193543024   20.72475730257533
C        -2.80743830488660    2.95698288887138   22.00206966323835
H        -3.45381631108102    2.08289795128965   22.04927255957050
H        -3.43869532027782    3.84215032179310   22.01436512979919
H        -2.17552298262567    2.95542581526970   22.88715314549389
C        -1.13705193147217    1.60859520186359   20.75553036306187
H        -1.79142672632152    0.74694099200608   20.86989089497354
H        -0.44195604515519    1.62790826255462   21.59226012882413
H        -0.56506075141890    1.48091506674914   19.84096446368266
C        -2.92032205852157    2.87941768548151   19.52344201837278
H        -3.61791360990730    2.04934558951607   19.61388544235394
H        -2.37970930779757    2.76813047650074   18.58789636791921
H        -3.48823395114306    3.80608948745686   19.48013545643420
C         1.56514879563856    5.29780249473102   18.00450705523912
C         3.04763310853827    5.39460273594234   18.39233594906418
H         3.66621964143293    5.40764909521380   17.49676694540819
H         3.33646121775847    4.53818345395322   18.99972323144516
H         3.24049108763561    6.30570273299785   18.95565380238826
C         1.39794455515799    4.08400881880212   17.08362614477930
H         2.04118215913434    4.20412663136939   16.21425142966214
H         0.37385798586694    3.99542328185961   16.72874315887434
H         1.68519266262353    3.16414118361215   17.58856138325371
C         1.14646315436154    6.55407009420417   17.22484470315320
H         1.76527275275145    6.66381794099832   16.33568530064231
H         1.25276643316020    7.44751760607051   17.84216258443982
H         0.10552774528187    6.47289279099127   16.91652908781488
C         3.15195155284863   10.21162092902020   18.37149651761493
H         3.89422185838291    9.66952320372667   17.75244773192769
C         3.82008122400767   11.42639807148033   19.03259447649131
H         4.70080034375277   11.11216973772031   19.58951224850208
H         3.10460743668122   11.86531695708081   19.72783042693817
H         4.10985783759098   12.15990806826494   18.28508440830257
C         1.96586337781066   10.64692862301439   17.50300420441566
H         1.54340536807269    9.78270523573605   16.99199611179483
H         2.27433378832039   11.38738141311259   16.76918172412031
H         1.20161475047542   11.06497348943247   18.16220225741602
N         0.72656658950761    8.25202553660846   22.23035136173240
O         0.11912492424292    9.35513887582995   19.86229079125892
O         1.59678017948343    7.24621873146104   20.10173816968946
O         1.85729201346983   10.29834446371536   21.47193084588936
O         2.70612225472089    9.37544305517260   19.36427606474770
V         1.51004281492721    8.97477549666745   20.38551583635617

