51
CSD_code = EJUCER | q = 0 | S = 0 | Stoichiometry = C19H26NO4V | MND = 5
C        -1.34323295118401    6.39776763874055    6.34813673669276
C        -0.71017890170520    5.27416764999816    5.74605595484499
C        -0.02961188256144    5.42814662075951    4.53114690292593
H         0.44034163278182    4.56165835439533    4.08669206348135
C         0.04083393216405    6.65073414843866    3.90719404867139
H         0.56003062388190    6.75629349575792    2.96721565561004
C        -0.56032157732900    7.76005753556205    4.50129661904666
H        -0.50160627047770    8.72285509759086    4.01462198370826
C        -1.22726704509692    7.64379369368392    5.69733083431385
H        -1.69778194101021    8.49992708284644    6.15972157001686
C        -0.72135617109213    4.01465772713148    6.42537043052508
H        -0.11403484343737    3.21243745872181    5.98428829108856
C        -2.30595129516866    2.58873798265925    9.35016724563581
H        -3.06893536879496    1.80232261174210    9.21820475370183
C        -1.25697127881457    2.56058692250510    8.19415560335778
H        -1.44186048540776    1.74348662349327    7.48333107535124
C         0.07273167871123    2.33020356197655    8.94846649388706
H         0.88196576094324    1.99193802330225    8.29985963477683
C         0.39822401113479    3.61150556850562    9.72773454085986
H         0.30544245370747    4.49763887164699    9.09580169285537
H         1.41988197454491    3.58221221331830   10.10782532612825
C        -0.64421018799044    3.60272357652899   10.86253625637361
H        -1.31104675701712    4.46669641304884   10.80789575190668
H        -0.18160747782736    3.59658769454237   11.84957965856909
C        -1.43833175070797    2.30772139212180   10.61661986026692
C        -0.35424506065720    1.34997317160614   10.06124090885141
C        -0.87581976517545    0.00700454012717    9.54638993497302
H        -0.09020187099455   -0.49840420558742    8.98751593156927
H        -1.74369564036302    0.10212138055209    8.90401567520185
H        -1.14919301037981   -0.62703077165645   10.38678267226517
C         0.76825146533594    1.02555937134873   11.04939204795983
H         0.38795241476402    0.38117608537324   11.83856129271616
H         1.19662947744617    1.90635300725600   11.51180560061461
H         1.56395473144806    0.49189928192731   10.53312925483120
C        -2.25675913337943    1.84638498812587   11.80563797887296
H        -1.62334253158220    1.70259711638592   12.67843917085387
H        -2.76507758398267    0.91110043890702   11.58249145857157
H        -3.00822998110119    2.59779780608413   12.03941551580831
C        -5.03084320250577    6.68329351885922    9.42766312073402
H        -5.78010804177957    5.93454795714577    9.74599880651891
H        -5.41989852790591    7.19614029029073    8.52762426773800
C        -4.80016061338002    7.69880377703594   10.55185386822576
H        -4.42793776428198    7.18807442127875   11.43799054351832
H        -5.72832701351372    8.20775413918100   10.79694293552211
H        -4.06208829440900    8.43398512295095   10.23622751451312
N        -1.35560084471035    3.81739936240020    7.51492546313898
O        -3.83131913951059    4.47810075310361    7.01560026748395
O        -1.98495908018544    6.30499411789001    7.46846902798867
O        -2.93487355603037    3.79880267699682    9.37116864968740
O        -3.88489818850634    6.02526702396990    9.09373860602009
V        -2.99795512690139    5.01874666942870    8.18483050122593

