66
CSD_code = EJUDUI | q = 0 | S = 0 | Stoichiometry = C31H27O3P2ReS2 | MND = 6
Re        8.05030905371269    1.49207314775831   11.05274895519442
P         9.52053843482302    1.11922350429397   12.95321182181987
P         7.87197524153455   -0.92323447399882   10.90700672420457
S         6.07403765655525    1.18365003058182   12.67994066609580
S         5.76702935662453    4.05549270199897   11.92696270410800
O         8.62507561893372    4.49613234023268   11.42559145504955
O         5.79783996026684    1.81507340622901    8.96002134440135
O        10.22655489033973    1.85419288631730    8.88044958199021
C         8.09861234241104    3.47397833585121   11.36892705012409
C         6.66550922156271    1.71386446271463    9.69825115664604
C         9.44352640677633    1.70666164435840    9.71379254279256
C         5.28156031965879    2.65569045730063   12.65792112188816
H         4.35863730710815    2.67423198208741   13.22544578613813
C         9.12427527344462   -0.31662522129509   14.04285220293482
H         9.89946396212240   -0.34590121080092   14.81809083440633
H         8.17776244348374   -0.05804999270332   14.53419364460582
C         8.99399895150825   -1.67824656168081   13.35911051564197
H         8.97242231091197   -2.44617770206277   14.13944526441111
H         9.86490824998932   -1.87390000048571   12.72548138727422
C         7.72726617410335   -1.80998560954755   12.51592808557307
H         6.86917752096609   -1.40719415036921   13.06168658552131
H         7.53816243244979   -2.86458236436297   12.28230657712644
C         9.62845620073444    2.40337100223346   14.24367337788391
C         8.54427413372054    3.23979916288044   14.47728089479191
H         7.65134731285742    3.14528695480168   13.87699290534061
C         8.60227936537166    4.20190891424994   15.46855493235741
H         7.75612566231568    4.85199350313437   15.63359615828493
C         9.74620131292921    4.33297230304591   16.23669372838386
H         9.79742297993430    5.08833482001197   17.00673377677816
C        10.82888124477585    3.49687571848781   16.01401538853267
H        11.72280677414158    3.59841573412482   16.61219255674045
C        10.77422177502400    2.53450534348480   15.02372671932092
H        11.62611091371780    1.89203653134007   14.84723239119107
C        11.28124372296245    0.94597474640269   12.52445086040027
C        11.79755528528280    1.99287756128282   11.76137704246842
H        11.14498417410013    2.81564753481890   11.49138413123413
C        13.11700598621242    1.97753888926291   11.35578507097128
H        13.50840375472022    2.79139455983193   10.76463548064094
C        13.93276813026674    0.91139584013139   11.70345748829138
H        14.96295305945026    0.89072586556316   11.38028666495868
C        13.42735553729214   -0.12622731996534   12.46731090409723
H        14.06350538241625   -0.95471136945585   12.74394916741682
C        12.10630328445037   -0.11224114296360   12.88326918820293
H        11.73424691231769   -0.92769234691280   13.48562789878628
C         6.40134929771634   -1.44868562987759    9.98530794082053
C         5.22269470952677   -1.87848986207447   10.58117817152998
H         5.15334451912566   -1.97658763509693   11.65465835951970
C         4.12228040060995   -2.16970135373490    9.79261643869919
H         3.20583647178945   -2.50310035783412   10.25759026183506
C         4.18938317797385   -2.02685124304587    8.41761495391971
H         3.32577402535939   -2.25177875123655    7.80959225326676
C         5.35965236894689   -1.58166589535220    7.82120338350705
H         5.40871266647933   -1.45604694617466    6.74988037802032
C         6.45893763385113   -1.28586825924356    8.60140580996659
H         7.37510311217747   -0.91787056119805    8.15395352133678
C         9.18350957103593   -1.91806264154259   10.13125966463462
C         8.92793111161268   -3.21750546991221    9.70310487818918
H         7.92734498338632   -3.62239478933944    9.77789351448595
C         9.95000908888151   -3.97952234450834    9.17003443404460
H         9.74922576957787   -4.98554794665119    8.83159710097981
C        11.23045802260321   -3.45658244415667    9.06848727875022
H        12.02497525157689   -4.05729981860698    8.65123406691065
C        11.48865472781799   -2.16525744498942    9.49572742965658
H        12.48293563335184   -1.75124295099777    9.41702177550910
C        10.46612845785836   -1.39670546491412   10.02259683779032
H        10.65616296446627   -0.38258260771435   10.34864881160138

