113
CSD_code = EJUDIX | q = 0 | S = 0 | Stoichiometry = C58H48FO2P3Ru | MND = 6
Ru       15.12885933757274   13.11153569664647   14.61863438248925
P        15.52623274643351   15.39895986600634   14.47861790115697
P        12.85493351090193   13.13606994536105   13.93928762116978
P        15.43634604690979   10.82978298842163   15.01251247499312
F        14.30239694833712   13.34208007295496   16.46158272000010
O        16.38347654513656   12.86600701076425   11.91949422063434
O        12.98380743273329   15.45439507729763   15.39208489761620
C        15.88061028860302   12.94155600949304   12.96260277017788
C        17.26496570738476   15.92279526783508   14.24996491446786
C        17.53477337529023   17.28802893091181   14.15223770854714
H        16.72294840596029   17.99958348893695   14.22934232675620
C        18.82703431436627   17.73376053039051   13.95518686793275
H        19.02570302882391   18.79360930374732   13.88489236348666
C        19.86630666361271   16.82284631288495   13.84257578431319
H        20.87604153639941   17.17237993291381   13.68365150444495
C        19.60486111213230   15.46707847983052   13.93073514090475
H        20.41045120592329   14.75305407585240   13.84019881830563
C        18.31035903358669   15.01758990188317   14.13373021251427
H        18.10934430233205   13.95730147533185   14.20875300000699
C        14.84836406164185   16.45395703640147   13.14130855949034
C        13.88770926956440   17.44187934718741   13.30857004185113
H        13.45204905672560   17.62125456311511   14.28008602718384
C        13.49851668837195   18.22207068852340   12.23333730436267
H        12.75040062550799   18.98939271585517   12.37342288983772
C        14.07237858500505   18.03541676834589   10.98860313349400
H        13.77530816082783   18.65706930466958   10.15678838426894
C        15.03336139246085   17.05245546327329   10.81468056088447
H        15.49022707270930   16.90627535549082    9.84667878512590
C        15.41206750754108   16.26246610979281   11.88133209831330
H        16.16481371421388   15.49597909273339   11.75042095656097
C        15.06860502080640   16.29552340975995   15.98711270004206
C        13.71928089976181   16.15221229550631   16.30536765762290
C        13.16729857123145   16.64913374573979   17.47954196181133
C        14.02667981882608   17.29899489405649   18.35506514663971
H        13.65359817529512   17.69920801414515   19.28429872917503
C        15.37449960591819   17.43700379648283   18.06277465402143
H        16.02073673912349   17.93633244597444   18.76954688784016
C        15.90654516788524   16.93469687900796   16.88792367177637
H        16.96292583814597   17.02201974280367   16.68146187093688
C        11.67002471517010   16.48636338065758   17.67457536486089
C        10.96671328932373   17.59749052090745   16.86726870404861
H        11.27063720909447   18.57642378058945   17.23343703102572
H         9.88680628187449   17.50435610831646   16.96572157945654
H        11.22134650089364   17.52937605180452   15.81094490795304
C        11.26064953715817   16.59889383727361   19.14236281952371
H        11.74411614044318   15.82477662626813   19.73348149285054
H        10.18292501928144   16.50329673342653   19.24523847603524
H        11.53698158662448   17.57291007133349   19.53777599571375
C        11.27721267037588   15.15222829534159   17.06265320808368
C        10.24319162176479   14.34542298328589   17.51581551865224
H         9.68077972560788   14.62349341539948   18.39273154674014
C         9.90889331558322   13.17830656769446   16.84968624573379
H         9.08894951579104   12.57587946373516   17.21210555102642
C        10.61760330873416   12.76327949514218   15.73570290772497
H        10.35066744997700   11.84115241086378   15.24203818367273
C        11.67399624090318   13.53325272150860   15.27310610708039
C        11.96309559630136   14.72999978189554   15.92878772005925
C        12.08303971432742   11.59397232183290   13.32247938065679
C        11.52257443282608   11.42939922641932   12.06237538314120
H        11.48826983321784   12.25542182727198   11.36699462343846
C        11.00900836967220   10.19881620272474   11.68859856606700
H        10.58119709120812   10.07737207263184   10.70370195986806
C        11.03518677342115    9.13012165632795   12.56739057974284
H        10.62997960551240    8.17408039526024   12.26999208887018
C        11.58067590378505    9.29111080838206   13.83101241495035
H        11.59123140733983    8.46476865355201   14.52677639455240
C        12.11107669398450   10.51161393527141   14.19942845995452
H        12.54800242722629   10.64956751834623   15.18174238364448
C        12.31005344018615   14.28602795652341   12.62829545881556
C        13.01935441744155   14.26747755776150   11.43063663759367
H        13.89144294096074   13.63253288912125   11.34088028477120
C        12.61298921646629   15.04146931898520   10.36093905687357
H        13.16087871280855   15.00594912696850    9.43073734298742
C        11.50425184859363   15.86221462033133   10.48411085289413
H        11.18609599288313   16.47070148681582    9.65039945141533
C        10.80477209486190   15.89991289707988   11.67773900193389
H         9.94021077254890   16.54078610012252   11.77683120275834
C        11.19669177157769   15.10905873224385   12.74338077760583
H        10.62954179810238   15.12902163355676   13.66341826291585
C        14.65174778301612   10.01027853252051   16.44108646339582
C        14.72514719220434   10.69481828668863   17.65343907218561
H        15.22375652780061   11.65390166182702   17.68911672340399
C        14.14153729017135   10.16185996041838   18.78819399383944
H        14.19815796881531   10.69862256494486   19.72407697730331
C        13.48145616504297    8.94534706063809   18.72418998758051
H        13.02422457163504    8.52860466673058   19.61016524367767
C        13.40173224775289    8.26532803359825   17.52003956830990
H        12.88342103856760    7.31797147280837   17.46714667828108
C        13.98041412802128    8.79351781876557   16.37942972313549
H        13.90333972842086    8.26220986706913   15.44159597512568
C        15.27051962771728    9.61551736274262   13.65344526582320
C        14.70223248086393    9.98136441068677   12.44168782611470
H        14.34313299109774   10.99337959328015   12.30805973018701
C        14.59664277210871    9.06652869088640   11.40937935342667
H        14.14650628291711    9.36320266793244   10.47337758859834
C        15.07070544655804    7.77746458261068   11.57792591069278
H        14.98789374566622    7.06009413722604   10.77461367088472
C        15.66726180299982    7.41154546473205   12.77483396493374
H        16.05513053203936    6.41095430555375   12.90140172372350
C        15.77349147818588    8.32510158913892   13.80607861973857
H        16.25572282187354    8.04509988323888   14.73315640936839
C        17.20924579921472   10.50496716179197   15.36225348332055
C        18.10037369522275   10.76303061069492   14.32196316643977
H        17.71741142271716   11.12109335161518   13.37518149540423
C        19.45617426219680   10.56812194429752   14.49355232596758
H        20.13721389164269   10.77291197901849   13.68003389349646
C        19.94259012022770   10.11110424766119   15.70896610091330
H        21.00345003658120    9.96105485874622   15.84694596913002
C        19.06367480397811    9.84863702767774   16.74409912049181
H        19.43692334866356    9.49086951245191   17.69314822294470
C        17.70193759764835   10.04105582818544   16.57460854946390
H        17.02882731996304    9.83125982597409   17.39353317576797
H        16.45987058069253   13.18372581863835   15.37057244997939

