37
CSD_code = EJUFAR | q = 1 | S = 0 | Stoichiometry = C12H21N2OPd(1+) | MND = 4
Pd        0.50745618306805    4.08230910026039    7.61524882098714
O         0.60196916316615    5.33311098561854    9.62955338053152
H         1.43290784360002    5.43556067377600   10.10406240386277
H        -0.10408974975665    5.27755094953795   10.28030403774762
N         1.36864005077085    2.24119694159020    8.23173136117791
N        -0.37079369904133    5.59327874431447    6.44540478256567
C         0.48076383510929    3.15743782402052    5.91626187398884
C         1.18700556358591    1.97311264368374    5.80348658585023
C         1.17276776973795    1.31852818393429    4.57814595635398
H         1.70631892757166    0.38928136651459    4.44899892283156
C         0.47275077894699    1.87403723326181    3.51672258130955
H         0.46871262429467    1.36469885282544    2.56589048632163
C        -0.21982979904799    3.06938763975594    3.64645809573551
H        -0.75347744945501    3.48104914920743    2.80350043431721
C        -0.22388123945657    3.72716239782818    4.87019130564043
C         1.94317902846733    1.55564344506730    7.04068559857314
H         2.98666265879313    1.87132976614495    6.93053032940111
H         1.93194119030920    0.46839207368185    7.18949176359127
C         2.36488411751228    2.31864279024537    9.29970843923578
H         2.75974167229630    1.32526208604103    9.54392552632409
H         1.91056963226272    2.73313711958781   10.20196640421518
H         3.19406542332031    2.95811732354792    8.98871828711477
C         0.19158783506141    1.49341054309397    8.70018294730297
H         0.48343003717290    0.50537575076523    9.07682950422830
H        -0.51230706131778    1.36073215188583    7.87308347409056
H        -0.30529405647804    2.04083831439017    9.50892879875464
C        -0.95924376635725    4.99893089856598    5.21278588078775
H        -2.00724525767350    4.75034491282967    5.41373770672659
H        -0.93604032391067    5.72821416644133    4.39328232913118
C        -1.35843439529753    6.41254941363891    7.14557926681999
H        -1.75047150639907    7.20211469662525    6.49384877006965
H        -0.89403634609754    6.88139901971244    8.01513495614442
H        -2.18925256357123    5.78685170311655    7.47939028591416
C         0.79765975855151    6.41104399143599    6.08959549941660
H         0.49674923745762    7.28113978219511    5.49343235294547
H         1.50316022884547    5.81078726451068    5.50630170074935
H         1.29227365396041    6.76644010036347    7.00019914924085

