87
CSD_code = EJUGUM | q = 0 | S = 0 | Stoichiometry = C43H34CoN5O4 | MND = 6
C        13.80797361475658    5.18946287941230    1.58606069171255
C        14.29363994446487    6.57268799128207    1.48637208892832
C        13.62564489397893    7.59537645187237    2.15765626500375
H        12.75757289641783    7.36317221253934    2.75642026472760
C        14.08303303688738    8.89597597549248    2.07377930903533
H        13.55943566582117    9.68194222097983    2.59798048580731
C        15.21095585643419    9.19255267194706    1.32561359555415
H        15.56568575392552   10.21071741944384    1.26153050762749
C        15.88680803328315    8.17897735355953    0.66831551397392
H        16.77154103546987    8.40450075563611    0.09098253775678
C        15.43442551227817    6.87485946430017    0.74798237423934
H        15.96427674186203    6.08596893704231    0.23642339398969
C        12.41954595279415    4.83248064432914    1.42257061118728
C        11.38243381855114    5.81336785389892    1.07081603375806
C        11.57073696700929    6.68345631995411    0.00006277790610
H        12.47826061844382    6.62719565576553   -0.58309796095140
C        10.59399773205912    7.60653241688118   -0.32179576741749
H        10.74459596339966    8.27709154024943   -1.15496181470096
C         9.42711927704326    7.67401926606724    0.42175254245222
H         8.66796284893000    8.39995699077167    0.17052278343729
C         9.23459083525805    6.80788302506642    1.48495970680363
H         8.32543813573207    6.85724235217173    2.06556724988803
C        10.20342466857861    5.87621128350314    1.80775361697890
H        10.05843338327239    5.20252597824330    2.63830788117565
C        13.53384852285446   -0.14800373848112    2.52369323811078
C        13.02147421238433   -1.50688939777307    2.74708303398332
C        13.29968889192251   -2.16634603379677    3.94319763200291
H        13.88356940419489   -1.66967370067237    4.70372384400011
C        12.81432206802776   -3.44060955937603    4.16297933788407
H        13.03452667181412   -3.94374840560697    5.09305013899260
C        12.04438732400146   -4.07045508880887    3.19834937292937
H        11.66734402849149   -5.06743892206915    3.37295251303758
C        11.75251582970906   -3.41485264122095    2.01466264582092
H        11.14564453468062   -3.89892780619653    1.26343200881966
C        12.23498513812965   -2.13898025032929    1.78818627780221
H        12.00444990973920   -1.62875005509780    0.86552472689403
C        14.90016327756165    0.22792234930870    2.79544601837313
C        15.91559545001580   -0.73939929456464    3.23594895600162
C        16.71995659246819   -0.45550305924239    4.33576377164336
H        16.59333175789915    0.47897079029690    4.86047078296572
C        17.66164417575583   -1.37429243131350    4.75998256474316
H        18.27717908670606   -1.15196478612968    5.61894024160447
C        17.81639818250309   -2.57497648242923    4.08761935492267
H        18.55322210893794   -3.29084781808289    4.42079538760135
C        17.02667867772244   -2.85593028952390    2.98465577111931
H        17.14880549378686   -3.78904364588595    2.45467307606813
C        16.07796981293560   -1.94571410459013    2.55933007767118
H        15.46628389958640   -2.16247675725861    1.69584538702561
C        13.14925418014851    1.74784770008929   -0.86078188062155
H        12.15977554393746    1.60411649568154   -0.44863322437427
C        13.37866917750671    1.50682183538858   -2.20432742289561
H        12.56690571505904    1.18538080352895   -2.83733350973067
C        14.65586521094993    1.68631671240878   -2.70987696089884
H        14.86954223659722    1.50807650696933   -3.75306230071685
C        15.65147597232256    2.10051667125201   -1.84027333291622
H        16.66283965732035    2.25511732726965   -2.18125646457957
C        15.33308139779320    2.31721242601176   -0.51078423055851
H        16.09697903769584    2.64880699920298    0.17928491185482
C        13.28776274620629    2.84392993400788    3.87030640002520
C        12.07909344646689    2.49472259085271    4.41545566771097
H        11.29945913460061    2.02509625641025    3.83147114438423
C        11.77944364204835    2.72500237846798    5.77698338737487
C        12.75082032500029    3.33602815337480    6.60715569669437
C        13.98639125935335    3.68926815893352    6.03195973652200
H        14.73733094654458    4.15727759602241    6.65381224301715
C        14.24608862267145    3.45126324081720    4.71018813269785
H        15.21185113019277    3.74619798285403    4.32537867203821
C        10.53587921466844    2.36069934463762    6.33404023481663
H         9.79894696890907    1.89147034295311    5.69756647301229
C        10.26976394713292    2.59454335507110    7.65398939175819
H         9.31575601243931    2.31285715024880    8.07612993158987
C        11.23205121045033    3.20228026401244    8.47625812038324
H        11.00273931451983    3.37966702433104    9.51722882410286
C        12.44641756818845    3.56487281051349    7.96488873672950
H        13.19206198528536    4.03261434207297    8.59269651255423
N        14.57118729038121    4.16273504387639    1.84927369072580
N        12.19074112507318    3.56580112054322    1.56533518744370
N        12.80818243560778    0.84617868448421    2.08719867238863
N        15.14841180195483    1.47798201205472    2.56502614264406
N        14.10544218785693    2.14643239359657   -0.02417324541244
O        15.84940382603186    4.27431939442468    1.97243157321268
O        10.93337899868573    3.09890342175493    1.36827220123460
O        11.57731017782166    0.69282211072390    1.73740896350533
O        16.41644415981845    1.93481295073996    2.71507556954410
Co       13.68484126708498    2.50842837487945    1.99085179909796
H        11.02116842982112    2.06978686332736    1.51490358994040
H        16.35212445737717    2.94386669464663    2.46025011681046

