56
CSD_code = EJUGEW | q = 0 | S = 0 | Stoichiometry = C23H27NP2PdS2 | MND = 4
Pd        4.73347823664816   -1.30778414550869    4.00665385596546
S         4.54152651675764   -3.59390286738933    4.29142608853951
S         6.84831414844769   -2.08730638921952    3.57201122917482
P         5.39403096090086    0.89447067284386    3.83290142290035
P         2.46001121737223   -0.93705734892048    4.21435828652010
N         6.90300506933012   -4.74085996867653    4.26590859808036
C         6.25650484222202   -3.68342718886498    4.05567669421950
C         8.24682526101594   -4.93813227739284    4.04044952469433
C         8.87177840708516   -4.55950768960318    2.85063558509823
H         8.29832232226034   -4.04975351652855    2.08970919034126
C        10.20517758934805   -4.85297692120927    2.64448184696425
H        10.67915428325795   -4.55685182779185    1.71880082008127
C        10.93583672830665   -5.51846498982797    3.61440553531796
H        11.98021714006054   -5.74159177713681    3.45013673637257
C        10.31838123142471   -5.90187441036888    4.79479651712785
H        10.88322684301379   -6.42539559971550    5.55359240533542
C         8.98385463950568   -5.62427725568439    5.00737603387401
H         8.49285942322970   -5.91854738865547    5.92288102051189
C         4.52189537759482    1.43606064201236    2.33319118578416
C         4.58875042546070    0.52720546905336    1.27654312258845
H         5.15139344985666   -0.40051797907627    1.41550162334825
C         3.95488490687412    0.80124915588324    0.08120417387391
H         4.02301418053278    0.10614588655671   -0.74184846974921
C         3.21729081627920    1.96768642677993   -0.05507580791973
H         2.70952664212912    2.17852617991081   -0.98430152718053
C         3.12685666517560    2.85974408668012    0.99890008841285
H         2.54582423234843    3.76440604886885    0.89255219261526
C         3.78295101678836    2.60169716805979    2.19138198892046
H         3.71337339928423    3.30839501012391    3.00597385632509
C         7.13717544218962    1.23031579902551    3.38362277302184
H         7.76894396319576    0.99772022524911    4.24107718279758
H         7.25980175242816    2.27475724720269    3.09631670671133
H         7.42517763505563    0.57703425579034    2.56054210364173
C         5.10864532245448    2.19686870232087    5.09119542333138
H         5.69643939953019    1.93971929545116    5.97309901686484
H         4.05921115987130    2.23667078783544    5.37381832587542
H         5.43509461688254    3.16489753615316    4.71249541197583
C         1.91844008778948   -0.97461023049122    2.47367476460466
C         0.93186269857575   -0.16339174190624    1.92948985807689
H         0.42422817200299    0.56923053364895    2.53829873223037
C         0.59438193752717   -0.28651485525648    0.59237602501980
H        -0.17216241671702    0.34946572058064    0.17441284169712
C         1.22685957074476   -1.22341473909054   -0.20571845111534
H         0.95143365252429   -1.32041564079047   -1.24546065754657
C         2.21789187947053   -2.03161435389824    0.32919164387736
H         2.71840526036758   -2.75869641109322   -0.29281554327756
C         2.57259175280050   -1.89878295494850    1.65791531032304
H         3.36464948609425   -2.52070086988205    2.08318266083169
C         1.44027261863462   -2.27645256870523    4.93684648897063
H         1.60054181686912   -2.30014489737895    6.01458343460037
H         1.76762615175209   -3.22738070616621    4.51691173493713
H         0.38577862668677   -2.11085399870093    4.71658248380764
C         1.64698618300933    0.55330919231136    4.91297305831375
H         1.95169289720550    0.65726361506200    5.95435353046643
H         0.56394267174058    0.44878558783014    4.87033468294477
H         1.95872168878151    1.43567826464313    4.35597663888075

