61
CSD_code = EJUHIB | q = 1 | S = 0 | Stoichiometry = C27H29ClN3Ru(1+) | MND = 9
Ru        3.41765753282568    7.05501209769233    6.80493795074537
N         3.89091254560863    8.03978846247565    5.12626473686962
N         4.96177011103551    8.01731858498621    7.64068404434023
N         6.18440097472267    8.19296651148078    5.63167767958402
C         7.08122739366761    9.10686847796642    7.68571933633129
H         7.93962372554865    9.47903027118732    7.15338475405553
C         7.53366934591070    8.06717040934957    5.07785443215643
H         8.17311093510547    7.68963682043309    5.88085177685584
H         7.93191081887366    9.03437204813374    4.75030877737714
C         6.06139831227548    8.44012374502951    6.99683754196299
C         5.12914303234992    8.39281668887476    4.74743899481328
C         4.09116938989166    4.83447556545354    6.57565751124810
H         5.02490277407891    4.36747467327530    6.28645036116064
C         3.08284426431526    5.03643136299881    5.60874859596601
C         2.57457582596287    5.54196102960853    8.38678003685741
C         3.83234965298075    5.08466448362095    7.94314938471558
H         4.59182617701505    4.82857717580230    8.67687376724113
C         1.82988946321687    5.53047339224868    6.03917429209892
H         1.01677712511050    5.61838624928137    5.32659690310618
C         2.86600612366753    8.26875855779590    4.29773913283842
H         1.88096719443873    8.03119630561856    4.68351780575136
C         5.35488064638913    8.95231958203500    3.48492729731710
H         6.34440848217240    9.25199687823353    3.19216854451330
C         4.29729418031715    9.15116993813965    2.62238381254553
H         4.46483462555788    9.59026038085532    1.65222070148477
C         6.96344447184353    9.33098628173691    9.04204494750640
H         7.73870284425165    9.85714634359626    9.57526065703298
C         4.84866970494009    8.25331210164864    8.95270158960790
H         3.92342383303707    7.93219553064565    9.41516131520318
C         3.01824661542824    8.80585980070594    3.03860654256920
H         2.15892845979472    8.96517797908614    2.40963863189168
C         5.82025935513242    8.88884157330362    9.69447745944561
H         5.67630689377049    9.05105340004267   10.74915458497812
C         2.25919914436256    5.61299250079806    9.86276537526803
H         3.19899527903638    5.77112085509122   10.40629757068193
C         1.28856099048576    6.74229429224600   10.21472194728424
H         1.54967767278962    7.66617804380698    9.70084253603944
H         1.31061332185127    6.92445576345810   11.28568144811079
H         0.26877311863923    6.47816692030436    9.94637323820842
C         3.30314168106262    4.64945177948470    4.17900532006113
H         3.23521979254672    3.56446513899288    4.08710676255936
H         4.28930223458555    4.95329957519050    3.83173735009446
H         2.55099818363543    5.09171840432828    3.52962639322421
C         7.57189819638320    7.06984288752257    3.94573135139371
C         8.23322684963854    7.35439569555427    2.75948715956677
H         8.72009102607093    8.31014910886551    2.62867017409941
C         7.67926601045766    5.18003765483027    1.90989253126389
H         7.72250211655323    4.44582331994869    1.12083035632617
C         8.28692200797579    6.41261525605463    1.74614053566556
H         8.80676298196899    6.64185973866905    0.82910641659732
C         6.97432670645677    5.82690909658943    4.10770035887901
H         6.47927846796849    5.60437408062668    5.04266139270984
C         1.68684802591165    4.25637986451200   10.29557063391976
H         0.76972638615415    4.03848847119971    9.75283841102587
H         1.46124329152374    4.27639540081989   11.35803885702572
H         2.39852607268337    3.45517983015615   10.10803006886399
C         7.02465689343827    4.88653560566628    3.09483197811303
H         6.56816170287281    3.91708309544483    3.23067697804857
Cl        2.22319428702729    8.99890389078715    7.33959371254340
C         1.59436844127754    5.80545620072597    7.39798584598003
H         0.60718628541800    6.13270482497200    7.70306139626770

