49
CSD_code = EJUHAU | q = 0 | S = 0 | Stoichiometry = C22H17BrN3O5V | MND = 6
V         2.34988971728165   11.40981318719841    3.38671503301511
Br       -1.93500971562377   10.58729051754072    4.14664043513213
N         3.29314624236998    9.65853899191046    3.15650136235692
N         4.54222778401424    9.74630382425321    2.71884314766425
N         1.65674972929537   13.43419225993809    1.77290220659741
O         0.90530531535106   10.47308310586272    3.32116830542637
O         3.96512273024134   11.90203364669211    2.59003933269422
O         1.94891795517899   11.35859259859313    1.01387860495722
O         1.75361733186534   12.98309487725501    3.02656955747646
O         2.71201748476415   11.42740101354518    4.86326170412578
C         1.52459018994442    8.31937115938543    4.06305847022092
C         0.57910688808850    9.36809683294199    3.90531440108394
C        -0.72668785613718    9.14898347651718    4.37145258046806
C        -1.10654649612187    7.96809182629846    4.96761343329951
H        -2.11908860642316    7.84497710029087    5.31964307868807
C        -0.17228688479955    6.94472675427605    5.10500455419771
H        -0.46882225539951    6.01743937645920    5.56899023521223
C         1.11833761980140    7.11574902170446    4.65493818020864
H         1.84224544728082    6.32235126438991    4.76606533432638
C         2.85466116469798    8.51899537985588    3.57914121558805
H         3.54170869095542    7.67184561444915    3.57080574656438
C         4.85042092342143   10.99819457510797    2.45080716263142
C         6.21846991149201   11.29903048655321    1.99918777558321
C         6.57095006610230   12.53706509898966    1.43973228403991
C         7.89139673597521   12.73033213792121    1.05134554626981
H         8.17599720627207   13.67907309966770    0.61876545018301
C         8.84570661576997   11.74192060639930    1.20684911515361
H         9.86475860630152   11.92514386218532    0.89958780617473
C         8.49093969164983   10.51962759896985    1.75563265544386
H         9.23056301544809    9.74319456293673    1.87896509625759
C         7.18628537541325   10.30296104634961    2.14712799462768
H         6.88372460964828    9.36323437179217    2.57991829971898
C         5.57478629818870   13.63516783282377    1.23624160863672
H         4.74652069887783   13.28435580031520    0.61916819865133
H         6.04150712789743   14.48846016596728    0.74789802747052
H         5.16208093880367   13.95365702757653    2.19415312504237
C         1.60120844055696   13.07318001784254   -0.61273385294639
C         1.10907301018277   12.21339901306228   -1.59216839287333
H         0.84561843351102   11.20490268272873   -1.31154177943004
C         0.95812009182059   12.65397507122411   -2.89355475057915
H         0.56820020082225   11.98554071894480   -3.64605101821237
C         1.31074704543985   13.95055910443215   -3.23087842693793
H         1.19549825393811   14.29552697175062   -4.24732319619283
C         1.82193361498329   14.80351980455003   -2.26561375707665
H         2.11141729978291   15.80888032563521   -2.53245230520034
C         1.96724945694407   14.37235444228384   -0.95943863792087
H         2.39385343571192   15.03839344058580   -0.22352172070204
C         1.74904839485354   12.54619450626697    0.76471663959295
H         1.38612202356549   14.40848379776768    1.67053413329205

