61
CSD_code = EJUJOI | q = 0 | S = 0 | Stoichiometry = C22H31Cl2F3OPRh | MND = 8
Rh       -3.55301749770238    0.00802171563959   -6.55578715785496
P        -3.61691176314834    1.53511294610341   -8.22083156752820
Cl       -1.25988753110962    0.28856737930263   -6.80691431436139
Cl       -3.76210112243793   -1.22490617071021   -8.53975671722365
F        -3.72145768406385    5.06165395952731   -5.68442985399390
F        -5.49686664435323    4.89230087552682   -6.87714388553390
O        -3.64851398035289    2.96463664713538   -7.42391138584975
C        -5.35466689946721   -0.64174398164603   -5.44346638775045
C        -1.07071054422867    4.06141708066447   -7.15224445571957
H        -1.38812296807116    3.28323581873763   -6.47492003436219
C        -4.24317556530166   -1.50915605267642   -5.10454111086904
C        -5.04348329426726    0.67466369437878   -4.99376089781467
C        -3.24361011346794   -0.72136346913776   -4.49327219500497
C        -3.45181885903344    4.26691320372808   -7.92327127496280
H        -3.94855965864078    4.41612670554129   -8.89227047993568
C        -3.70314122966726    0.65319183092188   -4.49397548702852
C        -4.18548338277312    5.17800751904889   -6.92966049229097
C        -5.08556575077907    1.65948237902625   -9.33749781495226
H        -5.00372075611152    2.58570548361260   -9.91196473216924
H        -5.03977580693684    0.81140068536813  -10.01992582225719
C        -1.98127772978409   -1.18191908403704   -3.83951665708681
H        -1.99599872083288   -0.89587631015639   -2.78697184928258
H        -1.11160096890092   -0.71939816623881   -4.30772614521905
H        -1.87459470915708   -2.26140516261066   -3.91103025985465
C        -3.00272130241996    1.78411278534301   -3.81307683434864
H        -3.24410023658453    1.77700935854640   -2.74807687557107
H        -3.31012253897851    2.74103545675511   -4.22848541519568
H        -1.92501071423670    1.68450242749737   -3.92145074751552
C        -6.38230242266400    1.63604108606475   -8.54580054815463
H        -7.23981591984925    1.69820701840103   -9.21329762645437
H        -6.42256367379689    2.47232504909811   -7.85038526450552
H        -6.44464198353403    0.70600594670623   -7.98616314327715
C        -2.19854639343307    1.61923070899730   -9.40774855262720
H        -1.36051866322970    2.05021845590144   -8.85541309981111
H        -1.94494183070061    0.58026366948964   -9.62460937372393
C        -4.27458525542726   -2.99662169760483   -5.25914917864870
H        -4.96476503847401   -3.42559475727922   -4.52991020521737
H        -3.28921803557013   -3.42907933663950   -5.10577508756070
H        -4.61650861176253   -3.27226891848540   -6.25566806773641
C         0.25960943055944    4.43664110704778   -7.21353798588829
H         0.97753583965584    3.95263672899874   -6.57003490604504
C        -1.59186431366654    5.65661396589695   -8.87683840602289
H        -2.31537417918508    6.13322278625199   -9.52278750401990
C        -5.96246881078233    1.84835724163671   -4.90275877652589
H        -6.24103262388534    1.99558373757727   -3.85759856766537
H        -6.86851040991270    1.69520630232942   -5.48197244434428
H        -5.47625322069718    2.75681048682141   -5.24865443274878
C        -1.99655248550781    4.66774357127332   -7.98999774651739
C        -6.67674084790401   -1.16194880510982   -5.91186292399707
H        -7.08599438389846   -1.83353219723357   -5.15511384935246
H        -6.56587749858251   -1.72932785167299   -6.83524417682476
H        -7.38802980661802   -0.35666110109514   -6.07686890339937
F        -4.09427108459143    6.47071119779528   -7.26768344397930
C        -2.41890963139763    2.37089782391055  -10.71439403307089
H        -1.48830140396274    2.36007162669296  -11.27894699425698
H        -2.68828346165989    3.41203360811814  -10.54925226710869
H        -3.18346009650001    1.89533638412066  -11.32289619356803
C         0.66475683216364    5.42211101230874   -8.09752418411805
H         1.70303172991924    5.71428630001071   -8.14343785155475
C        -0.26157989504004    6.03311737427867   -8.92632419237519
H         0.05089612288592    6.80173192052365   -9.61676921745188

