27
CSD_code = EJUKAX | q = 0 | S = 0 | Stoichiometry = C10H10ClN3PdS2 | MND = 4
Pd        9.67308871311518    6.05463696841287    8.19183162517744
S         7.31425459681950    5.06506793759774   12.08040354602177
S         8.51429430205543    4.51733236581469    9.46159565435813
Cl       10.13561117422068    4.76040336921455    6.47810866520589
C        11.70140237299469   10.23508178145360    6.85357683008261
H        12.12797818581189   11.19793064467933    6.61651623771694
C         8.83140141866282    6.48881382530328   15.13281677992586
H         8.04336356517600    6.16253794771441   15.79164852645222
H         9.80198689730525    6.62358929042537   15.57734596565285
C         7.29605149438941    6.53563794375986   13.19022912097043
H         7.03443789275833    7.38446142350782   12.56130414032498
H         6.50636347332611    6.32648486203640   13.90990429244998
N         8.63249122590351    6.89324166631314   10.72760831803260
N         9.31061159834089    7.25435310538729    9.64442856675799
C        11.82245045181524    9.17295066717810    5.96408096125282
H        12.34073686977119    9.28824820653458    5.02661421376929
N        10.61492312469205    7.76381610300590    7.44325931963291
C        11.26148781727469    7.95100590317746    6.30235165364977
H        11.32601627822479    7.08990075229920    5.64660576441565
C        10.48352924292717    8.78695730041932    8.32778689024638
C        11.02894797311616   10.04511312585607    8.04395329800901
H        10.91518022351372   10.84568748360550    8.75746025988545
C         8.61424420641690    6.71820971569428   13.85059213773130
C         9.76413214158567    8.47643883744514    9.52673743658372
H         9.59470200575636    9.21075294413178   10.30581202922965
C         8.22448203801581    5.64661398029592   10.72963426486362
H         9.41333071601044    7.03373184873787   13.19469350160039

