32
CSD_code = EJUKAW | q = 0 | S = 0 | Stoichiometry = C14H12CrO5 | MND = 9
Cr       11.32838108624079    7.80687748148681    1.13023427473029
O         8.88639084461921    5.36379516656291    2.96609207839308
O         7.40177398515871    5.38261626229811    1.16748585560537
O        11.99688440323761    8.48835494175435    3.94915086328742
O        13.50898582193572    9.76416178955730    0.60364461268991
O         9.89671492801147   10.38967670025284    1.49014733089455
C         8.41143475451765    6.09824309769632    1.83482836289512
C        10.23051912917670    5.09306582132261    2.86206678161990
C        10.73561707417098    5.68903624474005    1.62867032418133
C        11.99849915594138    5.62058836634253    1.00768702939726
C        12.13399496810115    6.20903296972128   -0.25236859425801
C        11.04135689627837    6.82494989556634   -0.90055294120015
C         9.78969145741009    6.89489733767771   -0.27312137140693
C         9.64957267028836    6.30629361515012    0.98857666231547
C         7.75958984137238    4.09176800615530    0.71921103888433
C         7.77828155056712    7.40562467781630    2.30888479111145
C        10.89117817362199    4.38919145871600    3.77760180643852
C        11.75110898374566    8.18605849876760    2.86360036698403
C        12.68186245050831    8.97939201550377    0.77728153803874
C        10.41627544109355    9.37204034434878    1.32387482125101
H        12.81271663966051    5.07043817909576    1.46020879711097
H        13.07354397430696    6.11559548406907   -0.78495595642211
H        11.15903787495610    7.19247262601141   -1.91216141924164
H         8.92694974668800    7.29588856648771   -0.79224657374488
H         8.08615436793285    3.45968704552333    1.55007674736043
H         8.55139135271571    4.13259417341986   -0.03933073340821
H         6.85763025351275    3.67428972217405    0.27868686987017
H         6.93742035872912    7.16767736400729    2.95322926634644
H         8.51186306771359    7.98915996995593    2.86037986654962
H         7.42393151627614    7.96962837888858    1.45172547240260
H        10.39103735996972    4.00301647837655    4.64484624166811
H        11.94500987154140    4.21308732055342    3.67984578965593

