97
CSD_code = EJURAD | q = 0 | S = 0 | Stoichiometry = C50H40O4P2Ru | MND = 6
C        16.46635639490277   12.10740282954374   11.85565312608138
C        16.68397659051861   13.43232831936237   12.48101493063755
C        17.30034543702596   14.44846585353646   11.75895088220049
H        17.57519302728743   14.26492063288915   10.73086743096333
C        17.55507921685912   15.66339075085798   12.36526500358280
H        18.03489912135326   16.45519238883771   11.80839597117346
C        17.19748934599035   15.86619413103291   13.68911484653711
H        17.40031995203927   16.81662823494788   14.16146599850953
C        16.57998486146893   14.85491190200333   14.40817298771097
H        16.30198574261047   15.01850071897940   15.43923202031571
C        16.32196072220616   13.63755961672527   13.80799790494669
H        15.84803504970611   12.83237003441864   14.34917857937593
C        14.86348068405491    9.83402158321951    8.73933547552722
C        14.09625985297314    9.76836171651218    7.47399583892003
C        12.80760524604882   10.28732029333887    7.41358268168726
H        12.39874256217479   10.77192608971124    8.28770206611461
C        12.07505777038865   10.17012088452708    6.24811520799857
H        11.07312964507395   10.57101045832555    6.19703416906910
C        12.62394733671709    9.53579996237371    5.14454927982944
H        12.04740742854256    9.44308084851920    4.23537377838995
C        13.90936312001845    9.02085056594979    5.20324824702657
H        14.33325063602069    8.52822538108981    4.34023885646775
C        14.64771687172886    9.13520252030709    6.36532275438647
H        15.64880870762583    8.73717968952841    6.43731739048810
C        13.47621490167374    8.34246113608442   12.35114320999959
C        12.67499151281349    7.29393722127854   12.79860827250755
H        12.92986566296424    6.27577951875871   12.53676584961885
C        11.55946004889194    7.55871187027863   13.56953952427245
H        10.93744585995254    6.74501248604373   13.91423438332960
C        11.23796198686099    8.86647989525176   13.90137177746617
H        10.36463432915741    9.06919654209793   14.50451640808232
C        12.03511237164608    9.90952031561620   13.46163299230778
H        11.78454545708311   10.92768183623018   13.72233349274766
C        13.15428106001217    9.65037159560485   12.68821589093128
H        13.78448266365128   10.45904378510391   12.34289112809599
C        15.63795837826808    6.62466576719026   12.29648961523701
C        16.28123800623009    7.02116517509468   13.46480627654030
H        16.33250160121761    8.08444389933712   13.67499543973108
C        16.83093900764002    6.08402401359661   14.31495375794672
H        17.33060929324667    6.39426617280640   15.22096881759716
C        16.74264723876666    4.73688305860573   13.99799212681411
H        17.17630073864152    3.99838665666373   14.65606313790772
C        16.09657803099660    4.33712500284891   12.84136041683107
H        16.02326717447643    3.28609655782830   12.60110535217034
C        15.53886370888543    5.27580514520198   11.98897491297511
H        15.03028415142438    4.95712717976868   11.08999198790786
C        14.20688024779749    7.21299903436715    9.86109836348752
C        12.88052013245881    7.42794044038086    9.50224649489685
H        12.23229489785099    7.99623458836169   10.15470166762889
C        12.39391243429973    6.92843724516619    8.30643512159550
H        11.36349824973924    7.10308733649524    8.03278272723728
C        13.22644651008327    6.22335003816383    7.45533444528704
H        12.84574210448943    5.84396848173421    6.51851430486400
C        14.55378719911184    6.01895596535934    7.79950011250561
H        15.20854950612281    5.48041820534016    7.12960310958178
C        15.04437586005157    6.51720050631400    8.99088867762871
H        16.08626081029876    6.38873108344542    9.25297998843551
C        18.84745773693762   10.68275558421652   12.80973974281416
C        18.39907437891696   10.46588960780184   14.11137859454846
H        17.81640620397282    9.58054125463304   14.32782894225482
C        18.67883716232523   11.38102617551306   15.10778429058504
H        18.32790525085684   11.20582006035979   16.11463139529403
C        19.39476647772650   12.53117156210987   14.81369548736179
H        19.60352150128368   13.25232658982645   15.59014060573429
C        19.82791208231237   12.76169507990902   13.51985915745946
H        20.37105854283215   13.66538369205200   13.28448974419546
C        19.55113633688041   11.84679787797014   12.51865898857301
H        19.87235229767052   12.04161095210954   11.50484204766177
C        19.49192119406386    9.89731673408998   10.16774825389465
C        19.04428844779525   10.32779829427867    8.92613675839032
H        17.98286638729163   10.44999880953084    8.75647221254191
C        19.95510086028495   10.59559166427105    7.91780964445946
H        19.60617197282499   10.93308192350204    6.95254461321276
C        21.31089964640643   10.43238679003571    8.14507724894662
H        22.02124013743044   10.64312620708318    7.35858335724052
C        21.76040863023825    9.99620362537116    9.38265543789576
H        22.81880308237336    9.86704319894928    9.55845766351587
C        20.85649192148484    9.72617227644796   10.39189396729644
H        21.20162842071752    9.38624811771213   11.35916802230940
C        18.92488605451042    7.91204177802002   11.99583416441404
C        18.56259093399276    6.87784117350902   11.13841737000186
H        17.93218391509913    7.12355171646803   10.29001054245638
C        18.99553960202822    5.58908794482820   11.37329360739578
H        18.71248103346240    4.78746101483492   10.70691231342409
C        19.79506779730138    5.32515703594229   12.47513671422070
H        20.13182625497289    4.31729483880722   12.66840738454798
C        20.16506608096897    6.35201974517226   13.32584662658587
H        20.79416151157740    6.14415858050958   14.17955588087919
C        19.73690259157613    7.64781409608128   13.08886068009259
H        20.03347153966687    8.44664607582899   13.75393326318319
O        15.96344920522485   11.16915638296123   12.53019156589471
O        16.83461574385615   11.88983959065363   10.67331459845134
O        16.00521402797028    9.30458366324945    8.80850617012260
O        14.36316457777142   10.36007227574881    9.76566928105210
P        14.94722200174155    8.00419583707703   11.32893786677872
P        18.29304362880482    9.54513511511339   11.49535995986036
Ru       16.14081836648858    9.87658389484819   10.85195062206636

