71
CSD_code = EJUSOR | q = 0 | S = 0 | Stoichiometry = C25H37BClN6Rh | MND = 8
Rh        0.42312546099467    0.10779875045336    1.86259039670472
Cl       -0.88569732430728    0.45258448135043   -0.02780018714168
N        -0.63213962348383    1.69679968845048    2.65810765961418
N        -0.09108906493594    2.90039448643031    2.92132284462507
C        -1.07223021948193    3.80282887698274    3.10002021850728
C        -0.85947788948345    5.24483031084100    3.38964265259110
C        -2.28113342505630    3.14819113937369    2.95657332457932
C        -1.96195178314740    1.82271430201237    2.67102685247334
C        -2.92385713327225    0.71608960784577    2.43068239515799
N         1.72984514161111    1.53970937662543    1.16566902735882
N         2.18169879780574    2.53981872649663    1.94153558875459
C         3.29730576095779    3.05792602381176    1.40432986023923
C         4.08193632769120    4.14341121324184    2.03896918040076
C         3.55590205989361    2.37531255672279    0.22975166396507
C         2.54054331771486    1.42879131582849    0.10850934273484
C         2.34067792014694    0.49539907244028   -1.03246460534493
N         1.92947422165900    2.54983299173416    4.43606396892282
N         3.26135022831011    2.40016085431064    4.53275337609812
C         3.54331098937020    2.12190139736466    5.79593172006471
C         4.93907615945923    1.87760401669167    6.25375068945396
C         2.36219630741397    2.09023709889064    6.54972174040296
C         1.35397420167909    2.37572931608341    5.64776303967075
C        -0.10650063908546    2.46772372265117    5.92447471370564
B         1.40698175142806    3.15501279575505    3.12179845416104
C         1.47155558965144   -1.07310862241432    3.44327511341521
C         2.31120386598058   -0.75196616539207    4.63272026207535
C         0.08097356360994   -1.43358510508449    3.46242265821067
C        -0.77689518817877   -1.42656124855377    4.68811984167879
C        -0.25314180087078   -1.97050140238474    2.18965599995141
C        -1.51144143677455   -2.67566764760462    1.78815275672745
C         0.94381205096648   -1.96705605551293    1.37544845044917
C         1.04120182753543   -2.68165846014197    0.06432512625514
C         2.00283302079290   -1.43844841619114    2.16288743800285
C         3.45963572030338   -1.40556732379807    1.83135031893512
H         1.59668959633298    4.32815819659189    3.11716697434267
H        -0.37097087345781    5.73083933388583    2.54717741845479
H        -0.23136023765617    5.38529286412387    4.26597086143824
H        -1.82165191562333    5.72101006801794    3.55979384193790
H        -3.26262600461429    3.56854111971099    3.03675506676316
H        -3.41050400994882    0.85780813481534    1.46663526888053
H        -3.68833647841717    0.71148779616349    3.20706746295431
H        -2.40822557701055   -0.23893101673440    2.41047521278370
H         4.22694378387283    3.90073317554437    3.09017420429198
H         3.55322321201985    5.09296893162601    1.97437896731360
H         5.04285305407112    4.24094888530180    1.54117748367758
H         4.36480949485359    2.53813723103815   -0.45307316416023
H         3.20916356413196   -0.14981531054348   -1.15822780369479
H         1.44782181548764   -0.10455116810566   -0.88832583329911
H         2.21940915091154    1.07242830570069   -1.94838526141393
H         2.25937142382615    1.88883419964796    7.59792199468797
H         5.03588853277605    0.87397350473770    6.66845388236478
H         5.21465777118270    2.59151754176022    7.02924870447529
H         5.62201839396305    1.98378174203479    5.41480563726999
H        -0.29154436183745    2.18385883207434    6.95870660877943
H        -0.67850835855631    1.80773609555259    5.27375348750230
H        -0.47202474466315    3.48278603409182    5.77717043823408
H         3.10728592389541   -0.05715646655076    4.37642433948509
H         2.76968277643357   -1.67143958333767    5.00464533939074
H         1.72134606518314   -0.31586541873503    5.43388725387347
H        -1.83591309318166   -1.44155168209066    4.44338972972409
H        -0.57559961088226   -0.55222377817611    5.30281784105275
H        -0.54939575430994   -2.31431321687336    5.28200925649538
H        -2.26967190626457   -2.61847816340902    2.56527884792849
H        -1.28692597915843   -3.72787612869274    1.60617285832303
H        -1.91521098915717   -2.25572797916637    0.86747260140096
H         0.92910827210521   -3.75419874866143    0.23470634144114
H         2.00043839732381   -2.50936289499146   -0.41528578241126
H         0.24775446098869   -2.36340162940658   -0.60965875055960
H         3.96660637969345   -2.19185530825340    2.39385970135235
H         3.90514455308304   -0.45297965128281    2.11313574256759
H         3.63309451570523   -1.57359552271667    0.77244134295024

