71
CSD_code = EJUSUX | q = 0 | S = 0 | Stoichiometry = C25H37BClN6Rh | MND = 8
Rh        3.27571253587813    1.83890997749295    3.53875403896502
Cl        5.54188910624666    1.42230773549283    3.24942584216286
N         3.32319736696107    0.48771726974403    5.10015172215750
N         2.43063674150854   -0.50724297604589    5.22860482798836
C         2.44927084116309   -0.96947138036839    6.48820299813454
C         1.53741906946702   -2.02925899138572    6.98071149534991
C         3.40829718144636   -0.25596901801214    7.18463857261763
C         3.94477849685305    0.65029823747976    6.27191178184572
C         5.06956949667120    1.59246117494319    6.51830177745038
N         2.99210246487723    0.19525762451402    2.32780169937894
N         2.50804034158972   -0.97941030325583    2.77250237600498
C         2.73223043244707   -1.93357531150157    1.85220537636789
C         2.35652761308023   -3.36369693690680    1.99868783265866
C         3.37000396270256   -1.34298667872507    0.77708999817827
C         3.52093841103787   -0.00090763240165    1.11573203054141
C         4.12755194579206    1.05600981341424    0.26424456331233
N        -0.36096808465000   -0.29950600520456    5.09123044282700
N         0.28775037830081   -0.51594686545469    3.93478193974607
C        -0.55364973364301   -0.34208315187991    2.89018757706647
C        -0.19582868481065   -0.53342331006517    1.45695505332089
C        -1.78466019602910    0.02069073567796    3.40546176581933
C        -1.60907419325397    0.02719884142194    4.79614601630830
C        -2.60470567133123    0.35600736687656    5.85335903341304
B         1.68069873201411   -1.15724644725224    4.05247565339488
C         1.47163207907140    3.08237558627223    3.98183291665872
C         0.13110244090862    2.79732343072208    4.56987409222490
C         2.58622786322809    3.56699713350115    4.75688543023630
C         2.51720237764461    3.77968751868286    6.23583421197665
C         3.59465978002448    4.00096269116712    3.85992273524134
C         4.85706629306682    4.73703047837871    4.17812318888630
C         3.12113820854789    3.76924413383944    2.51333257654691
C         3.77270340631017    4.36559448729120    1.30382678069485
C         1.79269825055794    3.24766805683903    2.60176484069672
C         0.84308000722677    3.07311259807935    1.46092863076389
H         0.52440926091461   -1.79656370235958    6.65781746918978
H         1.58204354247295   -2.07736511792217    8.06531507733417
H         1.81491726947008   -2.99996415389885    6.57310108904046
H         3.68803443656022   -0.37246647494618    8.21191491918251
H         5.13402024486017    2.34047809017520    5.73370049150375
H         6.00721764682533    1.03670197212937    6.52477863417039
H         4.95320771070371    2.07445447390909    7.48715745327140
H         2.63354599731486   -3.89997729572293    1.09455985807668
H         1.28785462098664   -3.47724937883187    2.16686380231708
H         2.87689070792166   -3.80756006481857    2.84521887621369
H         3.69272656294572   -1.81680868551667   -0.12728157978788
H         4.75632907490295    1.71261181400113    0.85963846421090
H         3.35125102936407    1.64669818690349   -0.22220597596332
H         4.73429547665753    0.58937296451756   -0.50717893048326
H         0.67580276946445    0.05421941385836    1.17635944323626
H        -1.03623263945418   -0.22831192211752    0.83630758291727
H         0.02152795927354   -1.57997799303009    1.24693640326299
H        -2.67902454111821    0.24233061390166    2.85644164396430
H        -3.47996756208322   -0.28652330883520    5.76488863122600
H        -2.15552305043795    0.21347112141335    6.83278446849133
H        -2.93405705755612    1.39144045051830    5.76119510995109
H         1.57139337814104   -2.31842631982804    4.27718382443669
H         0.19648455678908    2.06715399912667    5.37456676240429
H        -0.55861990318989    2.41446112929635    3.82329638625718
H        -0.28260370087770    3.72036854480612    4.98177899586230
H         3.47398160133517    4.09371030324263    6.64271629645426
H         2.19799317487264    2.87481244461064    6.74961465136101
H         1.78081229382734    4.55851565352405    6.44354127266600
H         4.82494058665237    5.72285885909601    3.71281017662755
H         5.72367504717803    4.20581895709641    3.78472574350979
H         4.98404753118790    4.86345653502648    5.25026543197336
H         3.32819494964053    3.99473289289951    0.38494564794084
H         4.84004510427777    4.15597485576938    1.29071235367834
H         3.64319076158306    5.44989522485156    1.33117829578973
H         1.35119207701650    2.72807479197544    0.56379265691605
H         0.37838675697855    4.03547700286556    1.23717289305911
H         0.05757706368019    2.36517423893465    1.71029586083033

