60
CSD_code = EJUWAI | q = 0 | S = 0 | Stoichiometry = C25H28I2N4Pd | MND = 4
Pd        2.91960562216330    3.67079820043126    7.40652103579147
I         0.88171937554448    3.04362811998003    5.91000214261523
I         1.92415522853321    2.45192598889846    9.50675875589505
N         4.19373286580603    4.35197710266009    4.54211492744797
N         5.56355725039801    3.77635970499339    6.08725614276008
N         5.61308480107674    4.30444012208371    8.37773348436158
N         4.19122757744272    5.34026525399513    9.61915746729200
C         4.24618968897578    4.01299682932163    5.84269492839408
C         5.44652664133943    4.33511522090737    3.98563905965259
H         5.60936809113124    4.58616449348768    2.95772905459507
C         6.31353091293450    3.97662297212625    4.95675523100420
H         7.37491810422059    3.83856302798853    4.94080070383666
C         3.05117722503968    4.68919294054218    3.75933983749764
C         2.55691529583555    3.74568580553244    2.85849336041361
C         1.46564029352462    4.09625431376757    2.08272107553757
H         1.05633878200155    3.37059417538625    1.39634479237349
C         0.86876997010612    5.34523864325947    2.18961897370915
C         1.39677683497534    6.26626966701464    3.08154542246917
H         0.94216021202149    7.24183445733674    3.17357536197694
C         2.49331757201768    5.95904537347052    3.87147122794393
C         3.15964476406599    2.37742693076597    2.78114634107024
H         3.14488365903056    1.91095296173507    3.76627990227195
H         4.19372729238831    2.41319619874758    2.43609968776546
H         2.58803243990405    1.75116112450310    2.10317021715988
C        -0.34418566644221    5.67255904282945    1.37742595127745
H        -0.48538745105273    6.74749444140920    1.29767648679332
H        -1.22388095138036    5.24640400816297    1.85914434198924
H        -0.26976293686120    5.24702086104640    0.37925019389432
C         3.07910086995360    6.96415072861892    4.81636409199865
H         4.00622611502408    7.37418387528110    4.41077478334331
H         3.30722421207248    6.49601068017275    5.77445364256320
H         2.38468901779475    7.78246686542741    4.98378150480344
C         6.08395456085311    3.38941408878867    7.37556923328291
H         7.17717418038090    3.39565921216793    7.34510600291031
H         5.72933752016631    2.37082617170589    7.62470599090560
C         4.29155668930502    4.46455930861422    8.60240304192645
C         6.34390600930979    5.10036939973351    9.22629110893194
H         7.41363480050312    5.13054607476206    9.20806040381382
C         5.44714186026406    5.74424918193892   10.00549183993782
H         5.59515520143251    6.46183737411632   10.78520658713171
C         3.00770016664026    5.67210455976211   10.34431204649458
C         2.93506919228192    5.30963980525367   11.69350302720597
C         1.78944711034834    5.63269424272502   12.40041448261015
H         1.71969542105073    5.34481300832145   13.43882421363209
C         0.71781887960965    6.28230214771669   11.80351632923460
C         0.80735695104580    6.60683046135933   10.46043563436883
H        -0.02675374280227    7.08664528820330    9.96987039954758
C         1.93883960444861    6.31007502248149    9.71428659906075
C         4.02469749680560    4.53025596544046   12.36710014644042
H         3.62170658985591    4.02153830397912   13.23812857184718
H         4.83644487484809    5.17743759182770   12.69971521049393
H         4.43299092012001    3.77524522255534   11.69838636591557
C        -0.51666462485387    6.58224476913063   12.59344240410279
H        -1.05741582802623    5.65729282344508   12.79057524550164
H        -1.17513219328850    7.25515520065564   12.05081152849293
H        -0.26136883248744    7.03068913672759   13.55178229080038
C         1.97236407397824    6.63498228602420    8.25312616531153
H         2.93415039502866    7.06638848025843    7.96764423056519
H         1.18338677163874    7.33754564821849    7.99770111608315
H         1.79268224195630    5.70835909219688    7.66044965294693

