89
CSD_code = EKABUO | q = 0 | S = 0 | Stoichiometry = C40H34FeN8O6 | MND = 6
Fe       -0.00000851725406    4.50300061349038   -0.00001467740280
O         1.75341833561244    2.84795828172819   -1.40013090090886
O         0.43259114195658    5.74190821164754    2.57031327412044
O         1.99998102552533    6.15973456403596   -4.85514525143126
N         1.58365192551259    3.52383401968934   -0.31256019821890
N         0.89569584738969    4.88288855916788    1.62901678507559
N         0.79622453070738    6.06680977246548   -0.81946112640086
N         3.67635816444539    7.54667076323088   -4.26656225473814
C         2.43648431495620    3.48648382904037    0.67110635902547
C         2.04333662755199    4.31660582600667    1.78960661830911
C         1.36872839290137    5.98543269336030   -2.01791044484192
C         1.96006841456485    7.06602624002907   -2.65810675781297
C         1.94443992487192    8.30665641216037   -2.02596815481199
C         1.33470400335108    8.39438086122056   -0.78524932834896
C         0.77904353344016    7.25963192188883   -0.22290685056588
C         2.53183595134295    6.86168607689576   -4.02664542458933
C         3.65852743201466    2.67142811286604    0.68461168089066
C         4.00077785531381    1.92924725738203    1.81467866540254
C         5.14957841237246    1.16265047089015    1.82419758978388
C         5.96851290388311    1.11698226962629    0.70737425703162
C         5.62484447950428    1.83501519745491   -0.42533150089857
C         4.47784502853221    2.60637951895499   -0.44020462719639
C         2.90704005677396    4.52388562629231    2.96210694879103
C         2.38218496149944    4.41293461545793    4.24704647755795
C         3.19741060689545    4.60395716002972    5.34711158749761
C         4.53636949649604    4.91409420483104    5.17845554088951
C         5.06039486354656    5.03741503662271    3.90180903706115
C         4.25302588206240    4.84321954442340    2.79756695474693
H        -0.51708149757021    5.99421835196998    2.21087394133457
H         0.28891725881474    7.31528219199272    0.73644757156727
H         1.28336409165622    9.33334823573066   -0.25751177938075
H         2.36674416671542    9.18026113349052   -2.49993365525512
H         1.38026093676930    5.02008370646645   -2.50183151370328
H         4.17402537404677    8.02671047486099   -3.53853413816189
H         4.13201565657199    7.41283132225134   -5.15446685831885
H         4.20938096674240    3.16217069702721   -1.32523625425742
H         6.25466353591955    1.79516504940490   -1.30235328738217
H         6.86758055796797    0.51816211442375    0.71885757581009
H         5.40670313405652    0.59496925135601    2.70684157418601
H         3.35708818479269    1.94772718208444    2.68179672340276
H         1.33950062231638    4.16859527247270    4.38070665047774
H         2.78377627386500    4.51013424858262    6.34017984543068
H         5.17122305419326    5.06252643568859    6.03971298261534
H         6.10331140853474    5.28467978359958    3.76638717272210
H         4.66011491408506    4.94602826637946    1.80228383142628
O        -1.75353380848099    6.15785158948387    1.40020825698294
O        -0.43260041910364    3.26409609288560   -2.57033868155743
O        -1.99982581062143    2.84629514959404    4.85516735293679
N        -1.58370591133245    5.48209918917683    0.31257618771285
N        -0.89572020367712    4.12310514252800   -1.62904192509826
N        -0.79624336717259    2.93920081478867    0.81944410874321
N        -3.67621643699301    1.45933177817231    4.26667824808543
C        -2.43652611444935    5.51947391860498   -0.67110291891434
C        -2.04337362086414    4.68936602910609   -1.78961409413320
C        -1.36869444809179    3.02057929466758    2.01791448615307
C        -1.96000657780543    1.93998031753498    2.65813655953848
C        -1.94440502489291    0.69935423939570    2.02599574019933
C        -1.33473447843020    0.61163476774165    0.78524688353724
C        -0.77909720998774    1.74638763363342    0.22288134800926
C        -2.53170394484709    2.14431451175603    4.02670373324128
C        -3.65856914199539    6.33453203048970   -0.68460742634993
C        -4.00081559185023    7.07674652784396   -1.81465712025590
C        -5.14962648822530    7.84333008335826   -1.82416688824384
C        -5.96857296592344    7.88895718203156   -0.70734898731795
C        -5.62490484083371    7.17089849313478    0.42534050117489
C        -4.47789679316960    6.39954602598660    0.44020414592103
C        -2.90706070132792    4.48211826616828   -2.96213278132790
C        -2.38219507426205    4.59310451154452   -4.24706613050765
C        -3.19740874467645    4.40209453293156   -5.34714221040539
C        -4.53636721812505    4.09194472757548   -5.17850276823498
C        -5.06040134507565    3.96859425864233   -3.90186352255907
C        -4.25304350554179    4.16277348153412   -2.79761123141417
H         0.51729979882706    3.01220678590094   -2.21114304767684
H        -0.28901823116637    1.69073382980539   -0.73649698695312
H        -1.28342513023652   -0.32732886266473    0.25749983865902
H        -2.36668334664451   -0.17425395674244    2.49998052489837
H        -1.38020502387171    3.98592475272551    2.50184356628727
H        -4.17391257736339    0.97928408020215    3.53867588776113
H        -4.13184231774564    1.59318959512214    5.15459603391478
H        -4.20942946959572    5.84373895778478    1.32522443933454
H        -6.25472699270837    7.21072362838897    1.30236190689808
H        -6.86764609267819    8.48777061282596   -0.71882278662634
H        -5.40675281741164    8.41103272810844   -2.70679822449550
H        -3.35711978656465    7.05829651498929   -2.68177257604760
H        -1.33950963838286    4.83744898029228   -4.38071374964614
H        -2.78376731741003    4.49593131510134   -6.34020669219850
H        -5.17121284180159    3.94352179140831   -6.03976744457791
H        -6.10331471106570    3.72131420741565   -3.76645294387037
H        -4.66013795167147    4.05994307035499   -1.80233327210702

