99
CSD_code = EKACAV | q = 0 | S = 0 | Stoichiometry = C44H40FeN6O8 | MND = 6
Fe        4.31001586089016    0.00005474596323   -0.00006858038052
O         2.58976581859216   -2.09824801848855   -0.63642167626738
O         6.61089426719597    0.90447581507709   -1.49993886947272
H         6.49072103911731    1.48687156099083   -0.63825312336459
O         9.15608373834666   -3.62972640986413    3.36858726615216
O         7.37260623619290   -4.99015038582570    3.53779599897463
N         3.64224726127572   -1.44852684690651   -1.01087945547951
N         5.55636085925693    0.05502708519838   -1.44028404714328
N         5.46296590241729   -1.20684402506495    0.96469605008069
C         4.25683478323454   -1.70128227559219   -2.12901636218305
C         3.82753093627506   -2.71245096990735   -3.10527583533045
C         3.77883874474406   -2.40645100258451   -4.46465703774698
H         4.05315172988448   -1.41722974978885   -4.80062806974401
C         3.36822625034906   -3.35686736711738   -5.37889439289726
H         3.33601936983202   -3.10954120576438   -6.43005501447083
C         2.99460052684676   -4.62096526296949   -4.95200166178546
H         2.67506905814045   -5.36231237601259   -5.66961224608671
C         3.02473931592293   -4.92684781737608   -3.60216091474046
H         2.72701128013925   -5.90848076646471   -3.26344204355782
C         3.43625432388112   -3.98041030730099   -2.68251973258384
H         3.45770502799889   -4.21950526574698   -1.63065285070089
C         5.40345017851476   -0.84548187633782   -2.35050670904053
C         6.31872062773699   -1.04618267305689   -3.48442213735931
C         6.80184735971571   -2.32114368459468   -3.77139500321744
H         6.50679212626206   -3.15559253450021   -3.15272379195101
C         7.66410429199981   -2.51439200669425   -4.83330206976412
H         8.03529917809183   -3.50561884194913   -5.04806010663316
C         8.05112724432098   -1.44242668507178   -5.62115306980090
H         8.72144275893008   -1.59727243235412   -6.45366481088425
C         7.58044556334376   -0.17204465297225   -5.33558704922965
H         7.88348628196519    0.66662153853767   -5.94497720398212
C         6.72244488705075    0.02921164331837   -4.27035217575823
H         6.35450034106297    1.01910326450577   -4.04824284961167
C         6.74816051104846   -0.92680588767245    1.19168657305726
H         7.11585866827403    0.01191736227563    0.80729738829937
C         7.59090076244223   -1.76564197241692    1.89149127582647
H         8.62419389808943   -1.50578891012449    2.05761713266207
C         7.09288867930603   -2.96810299467266    2.39008965440358
C         5.75117333052269   -3.26209038687895    2.15283926709971
H         5.31914479754347   -4.17941877114773    2.51760681201543
C         4.98665411399020   -2.35911461444339    1.44367951832628
H         3.94797945627624   -2.57231274516942    1.24285723888159
C         7.99594855628229   -3.87428381282301    3.14602320239197
C         8.14120854026138   -5.92867104230912    4.29170430649604
H         9.15504477912139   -5.96789098927888    3.87995848991426
H         7.64015830447636   -6.88751194288770    4.14354105394815
C         8.18642694836996   -5.55282325173376    5.76582147192213
H         8.72629822380314   -6.31581744383195    6.31881459452951
H         7.17820319566017   -5.46993636084852    6.16496412041102
H         8.69633659145735   -4.60059168706743    5.89080534046702
O         6.03022985642048    2.09836754825722    0.63624914122861
O         2.00927572806018   -0.90454210640210    1.49992063469328
H         2.12934533416819   -1.48682553021649    0.63811950233339
O        -0.53650308468270    3.62869391020875   -3.36915417419054
O         1.24630875534346    4.99038410322847   -3.53707282973126
N         4.97779784966458    1.44860469195058    1.01074289445946
N         3.06373507410944   -0.05500375983837    1.44020100951484
N         3.15701748961284    1.20691667427240   -0.96481090177265
C         4.36323144768730    1.70133753294898    2.12890889424997
C         4.79259457636155    2.71243219156691    3.10521517176635
C         4.84121512114318    2.40635924989124    4.46458468540402
H         4.56678103343715    1.41715630073703    4.80050503570255
C         5.25198171978694    3.35665435217718    5.37887702409090
H         5.28417345993066    3.10925246606981    6.43001972845851
C         5.62583997591917    4.62070889758512    4.95205840086305
H         5.94550692923237    5.36195723978471    5.66971021306277
C         5.59574865609397    4.92667307455593    3.60223396048264
H         5.89360481260016    5.90828699720812    3.26357579247014
C         5.18407403741626    3.98035848697629    2.68253774883887
H         5.16263207848380    4.21953120406750    1.63069022343051
C         3.21664505760694    0.84550802785228    2.35041887302037
C         2.30135768626973    1.04618209882908    3.48432568118355
C         1.81815653576303    2.32112225744647    3.77125868776846
H         2.11320444931751    3.15557603847958    3.15259035535928
C         0.95583823397111    2.51433191173637    4.83312242460202
H         0.58454232512356    3.50553443296134    5.04782863805800
C         0.56883881456099    1.44235231991865    5.62096483781053
H        -0.10157242646895    1.59716287983886    6.45340755033484
C         1.03960874739096    0.17199350946866    5.33544569527659
H         0.73658660994928   -0.66668179752946    5.94483197340825
C         1.89766331752739   -0.02922703796024    4.27025052300497
H         2.26570878159746   -1.01909005150870    4.04817928772258
C         1.87175812365220    0.92687216723241   -1.19146156815534
H         1.50415430806047   -0.01180874028757   -0.80688843051310
C         1.02887134250279    1.76561667450512   -1.89117913694628
H        -0.00442691401447    1.50568323708233   -2.05711806772452
C         1.52681187027164    2.96795106684715   -2.39016329226725
C         2.86860186779231    3.26192017420098   -2.15332339676703
H         3.30055015538019    4.17919433317091   -2.51832320036349
C         3.63325921038828    2.35906606215371   -1.44414291635381
H         4.67197660077538    2.57229783198938   -1.24356073030671
C         0.62357839706993    3.87381216189575   -3.14628205334886
C         0.47735284730866    5.92866307322528   -4.29095507029822
H        -0.53713316118397    5.96629002346236   -3.88031368219986
H         0.97710188501766    6.88806318466932   -4.14137298623513
C         0.43461570150948    5.55383372187208   -5.76547195100007
H        -0.10576216718139    6.31645553947448   -6.31849477450309
H         1.44354809432384    5.47264731229178   -6.16364099703299
H        -0.07390967152308    4.60088929941058   -5.89177229359669

