75
CSD_code = EKAFUR | q = 1 | S = 0 | Stoichiometry = C33H34N6ORh(1+) | MND = 6
Rh       -5.74160838935085   -0.74640882952672   10.70600540304474
O        -8.18555283723418   -2.15748815644593   11.59552296424156
N        -4.50003238653539   -1.36697996398072   12.39809222591346
N        -3.57298035384947   -0.47546296967552   12.82298134116621
N        -5.80257214579914    1.09239801553241   11.82899129063583
N        -4.64033004887573    1.58143055265022   12.31414975290427
N        -3.67964393635452   -0.03468807066288    9.97401003201227
N        -2.97174868025318    0.70136399952337   10.85347720691217
C        -7.22229666751181   -1.93095596091866   10.95372851580348
C        -5.21693642447663   -3.65530171175735   13.03495431336997
H        -6.25951958049217   -3.39306709810955   12.87246945931179
H        -5.13884918338449   -4.25188649358313   13.93957505438629
H        -4.87350880259554   -4.26106044666197   12.19683234736033
C        -4.37960556523605   -2.43822023828672   13.16718848590026
C        -3.35025909254742   -2.23504018341649   14.10272567667061
H        -3.02426293004837   -2.92425632414318   14.85328981394182
C        -2.85280438968332   -0.97856480577204   13.86341780685686
C        -1.75929775322480   -0.24445571448047   14.54544360515453
H        -0.94963881004355   -0.00666064936724   13.85544529038392
H        -1.35540915768221   -0.87040342944686   15.33569524756409
H        -2.12008145120127    0.67929564151413   14.99781820517055
C        -8.19166411105784    1.70238095591997   11.88426290575517
H        -8.34060579989206    0.68951112104018   11.51567803996809
H        -8.53431556355117    2.40895096901095   11.13032129258296
H        -8.78623585013676    1.85131495954563   12.78294626491353
C        -6.76083671377377    1.92793616440668   12.18868540919416
C        -6.19886368717841    2.99401588610323   12.91594502875792
H        -6.72360517164593    3.82711094077658   13.33456055205223
C        -4.85116980072119    2.74721440393709   12.98971016821982
C        -3.77369070023501    3.52702098907673   13.64637300071368
H        -3.31041762915526    2.96370809286457   14.45667880416594
H        -4.20108963295796    4.43159366680895   14.06857919379347
H        -3.00100429526323    3.81635657015785   12.93471170315576
C        -3.51972527632077   -0.70111295368599    7.61675545281436
H        -4.22458713958613   -1.47957316635490    7.90002234748156
H        -2.68894352193580   -1.13730119828492    7.06801566931057
H        -4.02975444271659    0.00316294633945    6.96025070092298
C        -3.02763198021209   -0.00188448774495    8.82637232890102
C        -1.86408931338732    0.77757334229310    8.96950232701181
H        -1.13594427536227    0.98626628531234    8.21392079538250
C        -1.85011792246270    1.21319952130464   10.27215410561480
C        -0.87010228347627    2.06863221601130   10.98430649017726
H        -1.33136409425752    2.99330367954850   11.33104247162914
H        -0.06561648248238    2.32749343011727   10.30233986224418
H        -0.43562515027435    1.55266884170707   11.84044535277654
C        -3.41541468656488    0.82656082356572   12.21811580908691
H        -2.64317974267174    1.36747414654409   12.77567122704395
C        -6.73269212978492   -0.05662297280012    9.13132013088770
C        -6.99935369474593    1.34833262936919    8.85686628772739
C        -6.02548584265944    2.33737304295311    9.01196845444790
H        -5.02380289697848    2.05486363588260    9.30163819534380
C        -6.31675787407245    3.66269603414683    8.75439382110187
H        -5.54879078017008    4.41374182608653    8.86851066174527
C        -7.58903144062915    4.03193916449528    8.34834950884751
H        -7.81692160931081    5.06864330354410    8.15459129502037
C        -8.56493051797505    3.06157322005117    8.18509496715774
H        -9.55671013761347    3.34232220185049    7.86415272583117
C        -8.27442786393413    1.73303852647155    8.42749654680567
H        -9.04237593183998    0.98230212101604    8.31539328198209
C        -7.11686152431449   -1.01310562598598    8.22786401869941
H        -7.55951162079920   -0.76745783391508    7.27231750465185
C        -6.78987924935206   -2.34998424862158    8.55299844363657
C        -6.78954820528494   -3.41323946884210    7.55502373733150
C        -7.78372618269381   -3.45927635464776    6.57439245537472
H        -8.56618704128723   -2.71620322919826    6.57052414455349
C        -7.80054051256181   -4.47905894030330    5.64301309958080
H        -8.58418507658824   -4.51362132608779    4.90182700380750
C        -6.81513291754828   -5.45349300886770    5.65635610618874
H        -6.82592003993658   -6.24411469931869    4.92227054488934
C        -5.81425288838603   -5.40874169091283    6.61416238979966
H        -5.04041381621048   -6.16121261141957    6.62237826013890
C        -5.80468510895565   -4.40426178019558    7.56177648383790
H        -5.00863388951344   -4.36287966250570    8.29105467815462
C        -6.43288018524180   -2.60566155039565    9.89299691128817
H        -6.13342716794861   -3.62035601114698   10.14588699879089

