59
CSD_code = EKAGAY | q = 1 | S = 0 | Stoichiometry = C23H28N6ORh(1+) | MND = 7
Rh        0.44622784758988   -1.04596749567683   20.40176517741904
N        -0.51398427182514    0.85883904980244   21.21711518204437
N         2.51671594154963    1.02310051213632   21.27097179750043
N         0.32242635109172    1.63255856457189   21.94709691915161
C        -0.23801889087835    2.84076532119046   22.23291966121895
N         1.46725093395741   -0.11500369831935   23.07126827377551
N         2.26578788590940    0.20168727766153   20.22717412879739
N         1.11781827823203   -1.26137934672294   22.43937425749019
C        -2.82461576457509    1.09226908419016   20.32575850857285
H        -2.66812637876017    1.12625506562237   19.24924199623225
H        -3.66729857093906    1.73323725118112   20.56855545744000
H        -3.05235787784017    0.06758525821085   20.60560429861693
C         1.56328996520004   -1.68637522194260   24.58685181611875
H         1.69271455813633   -2.22427523101438   25.50254173010011
C         1.73883341537005   -0.34084696121916   24.38583801063194
C         1.18370659361097   -2.22737135378276   23.34691792340550
C         2.13087925053091    0.71872795608083   25.34588932191351
H         2.26961587724277    0.27102086265113   26.32556570290157
H         1.35627424028118    1.48075544898720   25.42845157705533
H         3.06723951494336    1.19681376963208   25.05863123960399
C        -1.62013117360638    1.56764727642669   21.03895929646767
C         1.60076237094885    1.14147472313152   22.37608704337551
H         2.02239296280880    1.86841272985681   23.07895974828225
C        -1.48335290677260    2.82265617981186   21.66034955213614
H        -2.21261440700387    3.60511392019583   21.67894362427034
C         0.94385625486652   -3.66559420666314   23.07960730134251
H        -0.09722011045581   -3.92467441350315   23.26728552129838
H         1.55861440308054   -4.26241511742302   23.74887090838437
H         1.19299698407896   -3.91113921910663   22.05203591880120
C         0.44215562843786    3.90803203092878   23.00563019307331
H        -0.23865311159489    4.74635887348615   23.11971563677551
H         1.33042640504270    4.26429868340717   22.48428995169209
H         0.73003604251669    3.56817467199279   24.00031892010005
C        -0.08679642200837   -0.96676384319123   18.34702382297678
H         0.49007697573771   -0.29810078358253   17.70291672526960
C         3.29599847070664    0.31618008581931   19.39907729019541
C        -1.51992224757755   -0.83293691815855   17.97627162190486
C         0.10607103629045   -3.01318923132258   19.67803133443351
H         0.64083377336519   -3.92142394634044   19.93441460527921
C        -1.04370344596825   -2.58198610281959   20.44096093031797
H        -1.17552867839872   -3.11312759774706   21.38312559041345
C         4.22047603157192    1.23603025270745   19.92245444294172
H         5.14602094049511    1.53281072275458   19.47537447641365
C         3.70371086604821    1.67105371725388   21.11688489861707
C         0.54894898797814   -2.22438127047226   18.61162182393732
H         1.43561736040403   -2.52054181491573   18.06214166494357
C        -2.31638475747477   -2.32992874092764   19.78481712234866
H        -3.17376015988691   -2.77426168848610   20.27842924641124
C         3.46382030669715   -0.44338913688836   18.13697032442570
H         3.44713685476151   -1.51308979284801   18.33591646991248
H         4.41896117801487   -0.18791193940325   17.68717564712411
H         2.67412099569621   -0.20745451894673   17.42764925836044
O        -1.83385641972061   -0.03129870116031   17.11391607706476
C        -2.52295542035999   -1.66309793966396   18.64058240174261
H        -3.51572169444155   -1.59387037103140   18.21851224987722
C         4.26447341596523    2.62525052756004   22.10340657279750
H         3.60055053046479    3.47359509501281   22.26574760345966
H         5.20953368928145    3.00477232000105   21.72621048692513
H         4.45422959118350    2.13871937101515   23.06018071591751

