24
CSD_code = EKALUY | q = 0 | S = 0 | Stoichiometry = C7H11AuF3NS | MND = 4
Au       -1.19228465510791    4.77252740110430    3.01845842585745
S         0.60402502425409    4.31936958957674    4.54700116416739
F         0.69166800735052    4.05533617359365    8.16807199828437
F         0.82488360097166    2.05530853519976    7.39936614668566
F         2.19564469471027    3.55960621871246    6.71971264137435
N        -2.62999994464037    4.13717333532784    4.37216436860548
H        -3.57764858575803    4.20983403157526    4.01716313387952
C        -3.82988709826800    3.28389727654175    6.30017572169713
H        -3.92151767741203    3.87062253066119    7.21283816373564
H        -3.79070711283452    2.23376741491596    6.58477324110321
H        -4.71020626575255    3.45071478352075    5.68305152595324
C        -2.57088613850180    3.66262496594496    5.57798004101753
C        -1.37755941100891    3.45961452940184    6.31248960431083
H        -1.52240786915556    3.05225699697765    7.30511631182755
C        -0.07772060678352    3.70190927683894    5.95868420678754
C         0.92503556874438    3.35139931475445    7.04228875247881
C        -2.66790113629213    5.17518895327614    1.68268314300288
H        -3.32504592069365    5.92996381784013    2.10076478086097
H        -3.24503920002071    4.27252851144952    1.51363916966432
H        -2.31710304508259    5.53129476233163    0.72449508027235
C         0.12269691157361    5.41049859135877    1.63543765385615
H         0.08578411862962    4.80157769081212    0.73947690232223
H         1.12668240289182    5.34914814554049    2.04226390929023
H        -0.06240566181555    6.43993715274366    1.35130391296034

