41
CSD_code = EKAPUB | q = 1 | S = 0 | Stoichiometry = C15H20N5Pd(1+) | MND = 4
Pd        5.32198789667820    1.20567714065059   15.67034690625982
N         3.36420941355038    1.45502793945104   15.92044317772883
C         2.46486292615762    1.77504229379213   16.85172293286832
H         2.73819868057946    2.04045985780272   17.85927091848031
C         1.17550194329399    1.74025412629732   16.31010079801577
H         0.26910772485547    1.95549669698071   16.83962476012770
C         1.30193620169669    1.38655800759997   14.97916309690733
H         0.51889876408519    1.26861427165851   14.25726912685325
C         2.67684759380543    1.21821172796912   14.74571028315220
C         3.45965014877010    0.96007420331922   13.61101322653518
H         3.00160483250957    0.80334345919540   12.63730779037720
N         4.75377917945710    0.95691014467817   13.75468294041890
C         5.62254086064210    0.80331283697685   12.60983235882460
H         5.74871898217534    1.77957483481106   12.11983754912712
H         5.16514389791464    0.12104132554382   11.88251248723833
C         7.00241879716761    0.26072864501963   12.99972047196766
H         6.88222896576301   -0.70636752529573   13.50033101287255
H         7.57127492310921    0.09639995795333   12.08455523646759
C         7.78257355231922    1.21673429165391   13.90945786739766
H         7.58079360516672    2.25270258800212   13.61454959141285
H         8.86034595582196    1.03298720348822   13.80596456471719
N         7.37323622754733    1.04606814818934   15.30848289445475
H         7.72652761116690    0.13900652899573   15.63199453757844
C         7.86525437344182    2.09497928106424   16.21265396767467
H         7.44577048128695    3.05468932959560   15.87783358246134
H         8.96222283846704    2.16568787325803   16.19518668949174
C         7.37685261969876    1.78973780632809   17.63627602372450
H         7.98750858473999    0.98259689543725   18.06767746648382
H         7.48615592752240    2.69222795220337   18.25062385912932
N         5.98366733102283    1.37191938664817   17.57752162521249
C         5.35705221930874    0.94258928760152   18.62619978100767
H         4.34156386384217    0.59606751959567   18.44583867928637
C         5.74102089505701    0.83090631783114   19.98384310402258
C         4.92542590139572    0.27798027130071   20.98084255746272
H         3.94336322998751   -0.12187339286772   20.82621537568479
C         5.61722470826608    0.33735170445353   22.18396137423299
H         5.27590489635750   -0.00340851882654   23.13957883446185
C         6.83746899896734    0.92642804168052   21.91817029897409
H         7.64528505347941    1.15254435749669   22.58632182568154
N         6.91069393958171    1.21322250024324   20.60557870312430
H         7.69347545334515    1.67729468222454   20.17778172210063

