55
CSD_code = EKASOZ | q = 0 | S = 0 | Stoichiometry = C24H22N4NiO4 | MND = 6
Ni        3.15817315805237    3.68940363655747    7.98853128219191
O         4.87633394866917    2.40354030981692    8.17941971786913
N         3.22555365655384    3.64751960156154    9.77713168700936
N         1.59434544199120    5.24282809728947    8.52195992672257
C         4.13147593472769    2.84996687363812   10.34700550013734
C         5.01570355067316    2.17365581511900    9.42705472459833
C         5.97618227600392    1.32092222139372    9.99768950653069
H         6.65266105682952    0.79040886362801    9.34583739223870
C         6.04890844318960    1.16292335515493   11.37026278997519
H         6.80110141772170    0.49899919637716   11.77387181109407
C         5.20079741020683    1.81696196822859   12.25082893415214
H         5.29051393557343    1.66324194052499   13.31524585636970
C         4.21782892554845    2.67455090291861   11.75925600281828
C         3.28031071864463    3.39340954903390   12.54072732360264
H         3.30158771516498    3.28879805617838   13.61586207058536
C         2.36054388854512    4.19963241427261   11.93384483851447
H         1.63323167612607    4.75260849346743   12.50888790691444
C         2.34789351060259    4.31880577629791   10.52620428547709
C         1.41669419471126    5.12904362926726    9.78136693598111
H         0.58208477683362    5.60241390870987   10.30498868020148
C         0.66280642296558    5.97059432474990    7.71531684741539
H        -0.06886491775872    6.51777405615729    8.32603579599590
H         0.13659525965742    5.24976302852272    7.08053237387444
C         1.40588708174193    6.95893156045714    6.81509905417301
H         2.29558796087126    6.45943186086964    6.41547855969175
H         0.75502438708996    7.25879534080096    5.98096010148457
O         1.76364014183739    8.09345979700883    7.57623719522795
H         2.50897674570767    8.52642791786833    7.14626419373672
O         1.44004462830722    2.40345735601947    7.79763018508447
N         3.09079864735974    3.64751344263972    6.19992554319295
N         4.72193657924714    5.24292821902735    7.45508338163273
C         2.18489687124343    2.84994025680984    5.63004897855924
C         1.30068185108672    2.17359739931052    6.54999296212604
C         0.34021154074812    1.32086081555412    5.97934615935319
H        -0.33626212251655    0.79033629671776    6.63119438569414
C         0.26748408701764    1.16287766455465    4.60677286791192
H        -0.48470502585408    0.49895348040990    4.20315666385983
C         1.11558955136969    1.81693550101209    3.72621430469020
H         1.02587284185443    1.66322861137696    2.66179554717493
C         2.09854493488501    2.67453320437793    4.21779595035202
C         3.03605018210526    3.39341234993065    3.43632684824681
H         3.01477794022643    3.28880077833688    2.36119219804399
C         3.95579864047853    4.19965298709770    4.04321193047629
H         4.68310240407263    4.75264377189206    3.46817188338488
C         3.96844077187885    4.31882565792995    5.45085327325213
C         4.89961491588527    5.12909640616983    6.19568374419051
H         5.73423269748089    5.60245174132420    5.67205980465758
C         5.65347841163289    5.97070589281123    8.26171154686155
H         6.38513016135674    6.51789832465445    7.65097544088997
H         6.17972431468603    5.24986872212799    8.89646533759967
C         4.91044882695168    6.95903323397172    9.16197904689806
H         4.02064718129370    6.45963411908935    9.56151879569984
H         5.56132991121660    7.25873210588647    9.99616758622016
O         4.55288612276815    8.09366577530930    8.40089984251723
H         3.80826441473975    8.52720338977083    8.83132449683621

