107
CSD_code = EKEBAY | q = 0 | S = 0 | Stoichiometry = C53H46BrNO2P2RuS | MND = 6
Ru        3.08216594739035   10.03846228260780    4.46463792356529
Br        5.30148123073157   10.82362707556973    5.39013759604024
S         3.32813301163313   10.69877476236960    7.67631570778276
P         3.90494197800890    7.87934419851318    4.37280256555453
P         2.40950803695019   12.23710821390388    4.18178141651796
N         1.17610597377118    9.71418994172785    6.79103993201333
O         1.46863331210747    9.39582967494694    3.13212340811890
O         3.38763566143833    9.96885542322213    2.29605664031150
C         2.39951056171084   10.04386157402016    6.34345077801170
C         0.89126678392236    9.99078158965608    8.11463371360884
C        -0.30641255063303    9.78666209200536    8.79036514149158
H        -1.15864362142889    9.34763570401493    8.29670523788373
C        -0.37853275960211   10.15673621638800   10.11976822983690
H        -1.30231374968066   10.00752806983519   10.65797986250491
C         0.71358301024298   10.71638481258700   10.77524895973150
H         0.62548752711263   10.99542504162695   11.81398779158493
C         1.90837234211650   10.91881705051322   10.11057885673995
H         2.76430505969349   11.35234959643912   10.60195621361722
C         1.98495048821041   10.55243019981000    8.77817280534269
C         0.19577552304531    9.04819159581278    5.96818520970183
H         0.60346496246463    8.97362852594913    4.95524557671969
H        -0.71209551554824    9.66175039335988    5.92465468670168
C        -0.14234068833081    7.66269406384977    6.45969421622151
C         0.71329886508958    6.94693251630241    7.28585352866124
H         1.64741154736524    7.37942918868514    7.61315123426388
C         0.38104517699953    5.66670237392128    7.69404009566655
H         1.05483447676825    5.12613646339611    8.34111491495207
C        -0.80083116996375    5.08419114141511    7.27323212124302
H        -1.05718174383169    4.08459209088752    7.59081528782441
C        -1.65535356157366    5.78949519006861    6.44176886877459
H        -2.57966360262044    5.34109097405085    6.10821162990480
C        -1.32931898371787    7.07163086481355    6.04135915511589
H        -1.99665504248299    7.62257223801637    5.39348521238196
C         2.21567868718961    9.57244569056231    2.13681416023803
C         1.66872606005951    9.33990125773829    0.74468494144140
H         2.48481569964236    9.00975865251091    0.10067932878081
H         0.90348767097913    8.56297939983255    0.79405835043556
C         1.07600587143374   10.64496307643640    0.21483148541149
H         0.27879138327371   10.99494317475774    0.86894356899987
H         0.66723758689097   10.49574623417822   -0.78234779915988
H         1.84479187069501   11.41404677511043    0.16647411109877
C         3.96815315269357    6.86422472416787    5.88758600494886
C         4.50647826300475    7.47411141551314    7.01803223786079
H         4.85635732906777    8.49545556291986    6.95848879152180
C         4.61064314592128    6.77585927603354    8.20666136876783
H         5.02394678248220    7.26113560855114    9.07835497220350
C         4.19059903431126    5.45728117834783    8.27389379069943
H         4.27006791164075    4.90973138869228    9.20195310972418
C         3.67908416016727    4.83801148074515    7.14545018654820
H         3.36857144166682    3.80362153915088    7.18785044573247
C         3.56609657107444    5.53463253853022    5.95514211434196
H         3.17135022419691    5.03741675462093    5.08038497422995
C         2.95205095666595    6.83877566176506    3.21643058321704
C         1.67027046207064    6.43587067323813    3.58721452053561
H         1.30410284471111    6.66619049962194    4.57877857581804
C         0.87326793737025    5.73945373663085    2.70017691819204
H        -0.11715639623220    5.42891209548196    3.00123593806996
C         1.34245812811567    5.44758013926202    1.42847322990219
H         0.71760218805249    4.90748621220005    0.73208638858692
C         2.61073727929816    5.85455224333421    1.05064954096950
H         2.97694537267971    5.63245488857197    0.05860072077518
C         3.41361192323282    6.55225384871774    1.93696195734266
H         4.40025390299912    6.87648589065469    1.63455687506508
C         5.60400885147967    7.65339278354980    3.74201781225440
C         6.34274239856941    6.51928225282930    4.06669519216048
H         5.92669150961350    5.76901013417125    4.72432123074112
C         7.61498242118282    6.35336076371611    3.55177650494010
H         8.18511773226049    5.47223770382297    3.81001171448262
C         8.15954878762463    7.31214865176784    2.71309017438483
H         9.15665555002535    7.17982704573449    2.31906385354269
C         7.42573401429347    8.43918759823358    2.38427013632580
H         7.84741097452503    9.19010130314997    1.73257929334754
C         6.15225069669690    8.61159553073304    2.89508945526168
H         5.58136116968309    9.49160589745190    2.63327509940083
C         0.65251223259648   12.74239288761595    4.05505698373865
C        -0.34226612368212   11.81860336817763    3.76151097367567
H        -0.07898546621187   10.78394408647566    3.59900073092858
C        -1.66453286692034   12.21912795628769    3.66026041778711
H        -2.43017380619782   11.49131716306920    3.43136587272371
C        -2.00403083827123   13.54714069571464    3.84734467906297
H        -3.03500953207685   13.86018999728848    3.77011842197553
C        -1.01529052185651   14.47781128829980    4.12887941549098
H        -1.27458472240848   15.51753934139358    4.26640222859061
C         0.30398561450862   14.08150166435562    4.23188017657904
H         1.07257760083096   14.81087956986184    4.44815885297574
C         2.91786438278128   13.37289924005292    5.51676050464231
C         2.13382183136349   13.38220293023772    6.66927435331377
H         1.22780851465299   12.78703342662989    6.70563360765407
C         2.49705766256295   14.15245460171613    7.75629407883960
H         1.88242374414232   14.14902190881300    8.64534738376207
C         3.65374703259512   14.91341359525306    7.70608581160677
H         3.94380652966660   15.50958203121849    8.55856966795658
C         4.43826510953764   14.90390152301813    6.56591148753398
H         5.34333198046862   15.49118263128730    6.52698797244667
C         4.07693484204308   14.13544845903343    5.47308429070839
H         4.70129811242837   14.12499899633377    4.59231036085934
C         3.11152470087377   12.97948677765523    2.66807819848423
C         2.33898864836307   13.65665338828724    1.72961928366048
H         1.27853892184493   13.79422290545155    1.88722752232204
C         2.92348241604401   14.15417494546252    0.57763782638990
H         2.31341253069170   14.67853387241645   -0.14431083272605
C         4.27641228240347   13.97484909470293    0.34507526407000
H         4.72533230416845   14.36166022971404   -0.55829121617103
C         5.04729485857951   13.28788901446762    1.26849013470579
H         6.10131964641431   13.13457274846945    1.08947662233754
C         4.47018361469982   12.78678038365045    2.42010842948531
H         5.07784872470079   12.23531685416696    3.12400411704850

