103
CSD_code = EKEBOM | q = 0 | S = 0 | Stoichiometry = C49H46INO2P2RuS | MND = 6
Ru        2.56602624626315    1.51161422710727    4.81141892239975
I         0.09616038102463    0.38622548951169    4.93783660716799
P         3.39643995576804   -0.57661015865738    5.40480368024283
P         1.59739674439588    3.61142036619623    4.51560941893264
S         1.77312406496105   -0.03727913104404    2.04042733383709
O         4.47693811811351    2.33198859765926    5.33897768622202
O         3.04624307733413    1.96114799928037    6.92934567005119
N         3.29643706270431    1.97562284738036    1.89606191276486
C         2.66879210730245    1.23759342725554    2.83485222235926
C         3.04430648153769    1.64964867197886    0.57527431697748
C         3.46399557486413    2.30587522237096   -0.57763476807255
H         4.07888698587756    3.19026643451925   -0.53059170715696
C         3.06589727078434    1.81443155844812   -1.80551984502942
H         3.38355277989822    2.32343923609773   -2.70297262409199
C         2.26539767784042    0.68200301727928   -1.90843419569377
H         1.97372200760635    0.31952373962426   -2.88186050630520
C         1.83300151915341    0.02556409897596   -0.77279944217981
H         1.20056142903802   -0.84554844656650   -0.82648261466385
C         2.22337607250205    0.52363972489644    0.45802665391378
C         4.16446503479610    3.08342572486219    2.22199963767671
H         3.81222823138610    3.52511083579905    3.15885966157817
H         4.06204120793507    3.83374582786798    1.43517341227385
C         5.64656700027506    2.70776280497281    2.40623008571310
H         5.74868703628045    2.26502299139172    3.39945329740656
C         6.47991650791285    3.98609442217586    2.36886339687916
H         7.51973334671610    3.76567992178890    2.59778271182470
H         6.11332645277871    4.70470668848928    3.09821913835761
H         6.43742213086422    4.44503354829624    1.38225373072524
C         6.14808197322934    1.70994259772413    1.36600041755278
H         5.56353878057099    0.79162372249336    1.38103740427660
H         7.18453776658925    1.45237428696553    1.57431706211575
H         6.09896886437636    2.12888623375772    0.36330852713735
C         4.18411738832567    2.32061375086802    6.56065909225029
C         5.20675558630152    2.77718394227346    7.57660025808265
H         5.03713076855987    2.26726789305062    8.52104475390978
H         5.09389217220778    3.85030711176820    7.72997934769424
H         6.20912069583096    2.57326150524774    7.20813644573447
C         1.08468156659099    3.97393209207774    2.79858823929342
C         0.22866207471379    3.07098398960194    2.16890629043216
H        -0.19967461911815    2.25382685860829    2.73240884901490
C        -0.07518067472545    3.21212168149434    0.82829350681888
H        -0.73255212768958    2.50011264358224    0.35202509626393
C         0.47045430853250    4.25540678212375    0.09777362878264
H         0.24401069108660    4.35815863744274   -0.95311264054768
C         1.30665836673978    5.16594061705764    0.72040041474373
H         1.72731699831600    5.98761648866635    0.15806105865449
C         1.61783024899132    5.02649599803330    2.06211195219761
H         2.28161099288393    5.73833522008485    2.53395160146673
C         2.37781182400518    5.21032854943671    4.98662312781393
C         3.74774479612187    5.33955004254948    5.18518456520246
H         4.39997501026151    4.48618996507576    5.06881464861995
C         4.29478035046043    6.56177865667715    5.53982430977832
H         5.36134656184847    6.64539595453911    5.69453205045826
C         3.48167188004137    7.66982752771584    5.69476188056050
H         3.90880978057148    8.62194258653747    5.97322026427505
C         2.11555686921044    7.55241312977677    5.49035754256779
H         1.47515848229595    8.41476995328802    5.60557279446305
C         1.56641457076202    6.33427299871970    5.14087236356748
H         0.50045911397708    6.25071989774290    4.98234790277439
C         0.06037106061123    3.80954389603440    5.48033349479934
C        -1.16046824190597    4.19518328671936    4.94181424474953
H        -1.25401836506759    4.38698187667628    3.88203803012279
C        -2.26381519093957    4.32139123124471    5.76751823945514
H        -3.21399802309774    4.61411811721535    5.34530782801001
C        -2.15605158937433    4.06841730913779    7.12386341884556
H        -3.02323664274359    4.16190207595464    7.76060851814497
C        -0.93886612686697    3.68508610348475    7.66361203213383
H        -0.85511904525391    3.47892001413419    8.72061807158054
C         0.16597848273677    3.55540985088241    6.84579665437197
H         1.11671231271018    3.23516314540650    7.25749051593488
C         5.16235194203130   -0.50121956006999    5.87105085315447
C         6.05772205709170   -0.01117927456063    4.92221002673343
H         5.68608672110245    0.25877140047721    3.94243071884098
C         7.39248252925985    0.15886694811542    5.23297784179843
H         8.07674562818045    0.53878616500119    4.48739757486925
C         7.84825411864071   -0.14367770166002    6.50660217402046
H         8.89017109862030   -0.00480763672159    6.75613177466463
C         6.96133125412614   -0.60822655333985    7.46250222022536
H         7.31004705126514   -0.83006559549682    8.46092401627077
C         5.62323779758834   -0.78297673785501    7.15220300517932
H         4.93897022009042   -1.13344611403151    7.91207254190061
C         3.32986468214071   -1.93292280360999    4.17874625043398
C         4.38441096129202   -2.26975858702115    3.33772179319635
H         5.34500931783735   -1.78678699706487    3.43729505461779
C         4.22399288997199   -3.25167558704778    2.37546613746499
H         5.05385816404260   -3.50433879832830    1.73043288182929
C         3.01269729392604   -3.90657441021780    2.23814351361670
H         2.89134443547784   -4.66657827584980    1.48031143562111
C         1.96205388479603   -3.58702238690393    3.08212702885213
H         1.01436207605392   -4.09559581105323    2.98973229860033
C         2.11724010820691   -2.60920461453134    4.04525947487444
H         1.28973456056680   -2.36699284524138    4.69562773986295
C         2.70735537475516   -1.43633656167108    6.85966349051913
C         1.92557246601888   -0.77203277763409    7.79582870704085
H         1.68863432454435    0.27348337831164    7.66369104333387
C         1.44588227714954   -1.44765600545924    8.90478564509676
H         0.82987924463580   -0.92630073932131    9.62230986152773
C         1.74849244670448   -2.78481197216543    9.08991389226324
H         1.36927426183198   -3.31254911223001    9.95278783300873
C         2.54229239404425   -3.44841262967915    8.16686994998990
H         2.78698369850578   -4.49090785477349    8.31159838723832
C         3.02217523352612   -2.78054371591485    7.05757308509157
H         3.64366728746976   -3.29945414182364    6.33973415024119

