100
CSD_code = EKEBEC | q = 0 | S = 0 | Stoichiometry = C48H44INO2P2RuS | MND = 6
Ru       10.29041772095730   10.43437920160152    8.10133819881118
I         8.43154660132981   11.28816972474530    9.89156543424439
S         7.38895500140155   11.12128757129897    6.77456425279029
P         9.29997892539555    8.33611287780983    8.12068784432260
P        11.58363196943392   12.31242060988593    8.49611192831530
N         9.44349688421927   11.16986531010852    5.28680516511433
O        11.87759456286405    9.32321574735032    9.19380406594226
O        11.96249335719667    9.61634682123217    7.04564107198856
C         9.12594301394960   11.04044791050928    6.59422359200774
C         8.38040471304255   11.18272722415553    4.39566632649248
C         8.39289032417155   11.18252068509121    3.00312576500559
H         9.31248998729602   11.18932741325390    2.44259166668222
C         7.19082286629137   11.15737911267401    2.32116658545054
H         7.20336803165464   11.15120934085087    1.24155089526568
C         5.97370160823443   11.13505740472863    2.99163674285867
H         5.05209970273054   11.11351719684347    2.43106779579876
C         5.94203708358092   11.13380481271750    4.37216996654031
H         5.01443136628136   11.10971070324227    4.92067245036261
C         7.14529596486112   11.15321364928347    5.05422768798352
C        10.80329755882739   11.52192466433164    4.89253090567748
H        11.35436948485115   11.60264077354235    5.83773387965196
C        11.49313357659641   10.44660112056739    4.05176332486726
H        11.85283215942413    9.65325258730928    4.70039944116377
H        12.34931175984109   10.88204022584543    3.54235577626047
H        10.82821454510754   10.01748370722087    3.30788656184324
C        10.81646959596275   12.89654498827769    4.21949673551494
H        10.40369153924751   12.86612667451714    3.21596967763213
H        11.84027744983013   13.25781586389602    4.15358859984041
H        10.24338857346642   13.61025386710648    4.80804823244770
C        12.45224171917510    9.14294350005515    8.09724863346097
C        13.73377693721248    8.34466204705763    8.02801743877711
H        14.47427654758430    8.89668539820991    7.45412606995225
H        13.53320225506926    7.40255504389452    7.52059932679047
H        14.10131298983677    8.14973218121199    9.03087803161387
C        10.28857032497960    7.13679604030640    7.16331013802901
C        10.88461739202550    6.01079474474521    7.71882812227392
H        10.73560022678026    5.77532665717404    8.76323743342848
C        11.68127924443672    5.19176229665805    6.93608339738599
H        12.14075737131212    4.31773791036406    7.37527669674394
C        11.89779960097420    5.49161932831967    5.60181372125758
H        12.52248919906031    4.85044864771050    4.99712956129021
C        11.32586240064516    6.62628354352838    5.04767349204013
H        11.50785309063200    6.87453591257469    4.01155499778503
C        10.53394634269614    7.44702339171118    5.82664021672112
H        10.11555644323022    8.35608479107194    5.41272191827112
C         7.61157658313781    8.09127629290644    7.46037014034641
C         7.33859999818356    7.69992803567636    6.15467672434931
H         8.13873380139802    7.42355322749640    5.48353739506203
C         6.03177782414931    7.64544595628586    5.70212694805628
H         5.83433486790693    7.34342485229437    4.68325820712890
C         4.98577013818368    7.98074169340969    6.54390948099048
H         3.96855038133901    7.94438410042781    6.18243288758075
C         5.24939157853644    8.36005276497324    7.85003348509448
H         4.44092451076547    8.62291292468883    8.51522858770033
C         6.55163263985573    8.41728009942079    8.30656520992729
H         6.74967123441510    8.73021306223309    9.32174252653465
C         9.11324424947991    7.47181047457614    9.71525814370239
C         8.38782150770990    6.28053287739184    9.75195635435839
H         7.94480167581026    5.89274527327656    8.84365360862653
C         8.23416106440137    5.60027996127059   10.94344189334285
H         7.66977545769185    4.67907366373854   10.96579314459797
C         8.79829261584469    6.09945024419168   12.10805661279840
H         8.66941311191510    5.56774940481660   13.03946658822079
C         9.52301866074074    7.27713223481707   12.07481289571671
H         9.96124424855345    7.67029364708314   12.98004451099326
C         9.68314949695057    7.96140007822872   10.88204694752718
H        10.25193290489709    8.87838261023878   10.86245007144104
C        11.19044559406230   13.88582037089500    7.66529557269904
C         9.84750332862379   14.14930617621844    7.41324644580579
H         9.10075631251170   13.41391818168784    7.68530170683880
C         9.46624866720145   15.34358548899307    6.82873323783054
H         8.42090171281861   15.53997283474482    6.64144224090844
C        10.42568674151443   16.28266839770499    6.48678894606175
H        10.13236595777760   17.21351623197501    6.02429070272045
C        11.76326473862686   16.03106299144386    6.74723066648950
H        12.51135144547342   16.76845528674452    6.49377784754044
C        12.14794659642020   14.84259558434255    7.34154963819166
H        13.19153225353334   14.66253356234056    7.56076945091777
C        13.36631943198985   12.07762460815029    8.14222662395647
C        13.85580372279755   12.23396070062524    6.84664156683688
H        13.20384235312421   12.59120930717961    6.06262000199108
C        15.17713223817506   11.95241708058795    6.55546059778421
H        15.54239599188959   12.08194833424484    5.54658493706489
C        16.03027795990790   11.50371424054295    7.55060931589653
H        17.06207082060653   11.28098057591465    7.32110789694677
C        15.55251839671122   11.34241711285583    8.83986587128742
H        16.21127828882875   10.99305324051873    9.62177152409709
C        14.22991741584969   11.62242886241535    9.13471952067870
H        13.87022235193531   11.48898089620062   10.14520575733180
C        11.66136338628636   12.84258273055559   10.24412009712668
C        11.67910458984373   14.17837675168399   10.62540806427442
H        11.63414298698716   14.96052099130418    9.88187946819170
C        11.74004070473700   14.51224979398672   11.96698935904960
H        11.74736067311989   15.55319062608335   12.25574664521655
C        11.78184565046722   13.52385578089771   12.93462778645336
H        11.82162907496303   13.79168566325652   13.98005352775991
C        11.76019069555938   12.19053768000402   12.56046633575953
H        11.78103986927718   11.41513348749367   13.31200768712939
C        11.69690047504402   11.85122917251567   11.22318085109139
H        11.66515300761809   10.80881455153352   10.93208797731493

