79
CSD_code = EKECUU | q = 0 | S = 0 | Stoichiometry = C26H48NiO2P2 | MND = 4
Ni        6.18484180094098    6.87254686046426   24.95025271891561
P         4.49579863307884    6.29792658335558   23.62668154953627
P         4.87289919526703    6.98783132592479   26.79656486584358
O         7.83924109593831    7.54749431773912   26.03210796415411
O         7.71071315217266    5.36412656584074   25.88067721147444
C         8.28960441883632    6.39429455525988   26.27205217933257
C         9.57904214874261    6.28984258151399   27.06738052136557
H        10.41089536341332    6.47871763675261   26.39196528847925
H         9.67852976461060    5.29357144913606   27.48791819768917
H         9.59551957447426    7.04020952309905   27.85309290396978
C         7.33314859189097    7.23316407170522   23.51239912012908
C         7.47596205524470    8.56132047801494   23.11445754599091
H         6.83874387632254    9.33966033563126   23.52010125320180
C         8.45469834734434    8.92174490735434   22.20048343095842
H         8.55393002817898    9.95791780738427   21.90779759480647
C         9.30002454407185    7.96484478271105   21.66877200563722
H        10.06094733443994    8.24725069271725   20.95543120588410
C         9.17422910828652    6.64766873858270   22.07039000491985
H         9.84064843192400    5.89375886702541   21.67476320160367
C         8.20054852316406    6.28080752950071   22.98817194860766
H         8.15096421410172    5.25022103262915   23.31266009773906
C         4.65459624292120    4.54787771543655   22.90309031441390
C         3.34557716672344    3.81245040405484   22.60754860917227
H         2.69066604485391    3.76441651432123   23.47353127621976
H         3.58700746033436    2.78872974223714   22.32167556038846
H         2.79654409903779    4.26164684613007   21.78694982765595
C         5.48977651231184    4.60485640561550   21.62267095864095
H         4.89004043661314    4.93468742628415   20.77801255056387
H         5.86919277906950    3.61198750951583   21.38390630981675
H         6.33804321374872    5.27511327926869   21.74318853332992
C         5.42622893479710    3.75569182787788   23.96687558986306
H         6.20276724975026    4.36946608096309   24.43305486224124
H         5.90563639691586    2.88617068579559   23.52052724061986
H         4.75653013964425    3.39249498903583   24.74363795611289
C         3.72577228529077    7.45244999519267   22.31873139810442
C         2.47468592029660    6.91742751024785   21.62513624961302
H         2.72523102006990    6.15057955749714   20.89787872909583
H         1.99520727707287    7.73432289273182   21.08578975378264
H         1.74717843111963    6.51337813388724   22.32490657380946
C         4.75798217701719    7.82141742804757   21.25116316546946
H         5.69829606344019    8.11989340903524   21.70602602482887
H         4.38261488081812    8.65594794141803   20.65918251584297
H         4.95357134203578    6.99924191697426   20.57167074959843
C         3.37113278405031    8.73171340680053   23.08014859166557
H         2.51909399460296    8.57988507851418   23.73917864163053
H         3.11212422030181    9.52714766512903   22.38216680532275
H         4.22987139773539    9.05879483616113   23.66356099378370
C         3.09477791391847    6.04641970008538   24.83156610474579
H         2.13177763859503    6.16492186858316   24.32734058760581
H         3.17752613879793    5.00944543756507   25.15724614864303
C         3.15942101459629    6.95286608110330   26.06015356849381
H         2.41944636916165    6.63192777134695   26.79790052756672
H         2.91902846552629    7.97581668694216   25.77032775645361
C         4.91006257705529    8.74547796475713   27.52861805998876
C         3.64733355526583    9.22965053065553   28.24313920045032
H         2.74942644247329    9.06881813946695   27.65153051116835
H         3.73892810277808   10.30217400797070   28.41697726683813
H         3.51307749114014    8.75332638286430   29.20814371079709
C         6.11549590136246    8.87908485598566   28.45910905616638
H         5.97039211457354    8.33566086702367   29.38956716861457
H         6.27304688487122    9.92794628117293   28.71120865459566
H         7.00926494386100    8.51305030437691   27.95672406061865
C         5.16314164109067    9.65056789950368   26.31609865815365
H         5.97177519564098    9.23254247664129   25.70756242917725
H         5.46983028286377   10.64365279736677   26.64280351853567
H         4.26627831765895    9.76446833696179   25.71031197392347
C         4.74619149286536    5.72438581891315   28.21399742279059
C         3.82216397870327    6.11938320993732   29.36303832616960
H         4.25901672026158    6.90677256643888   29.97076089799297
H         3.66888827053927    5.25455919205196   30.00915972663746
H         2.84659182698260    6.44516363605052   29.00775562771019
C         6.15429975592271    5.44807262234458   28.74602266608433
H         6.78694662039029    5.08261334411107   27.94090891732021
H         6.11242362734618    4.68364339203265   29.52206833229604
H         6.61673002110370    6.33408750570851   29.16953063984672
C         4.24468082000068    4.41736108775549   27.59491089296873
H         3.19676047445985    4.47664430909361   27.30691150866129
H         4.34308062219079    3.60746907475552   28.31752352658881
H         4.85599610497141    4.16811600992149   26.73025196052230

