81
CSD_code = EKECOO | q = 0 | S = 0 | Stoichiometry = C27H47F3NiOP2 | MND = 4
Ni        1.13758525564023   17.82658086051917    9.11985941636318
P         2.01598618797406   18.72260398104810   10.94893962153172
P         0.77641287053964   19.76510564159451    8.09169558244385
F         2.79948170937813   16.62834414866794    7.76879946083704
F         1.50855924878897   16.60961401823631    6.05377650196313
F         2.02112842922865   14.75275504191702    7.00303521049273
O         0.94917806707301   16.05453029618393    9.47788961120668
C         1.68714660535844   16.03028883674726    7.25705552776909
C         0.56076867651465   16.20534228305762    8.27185757683195
C        -0.82681341056614   15.94339666543300    7.85492474134077
C        -1.19334865929535   15.59251488448984    6.55439351350436
H        -0.45545650921620   15.50723911692260    5.77288727225080
C        -2.51632088104187   15.34006473645035    6.25086069814365
H        -2.78270072962594   15.06924307034230    5.23903562681255
C        -3.51181553033303   15.42123054088536    7.21798570764248
C        -3.14230458534874   15.75203264815051    8.51611955204027
H        -3.89550846293330   15.81005000742507    9.28930837666409
C        -1.82504834248892   16.00403087533260    8.83164743514166
H        -1.54385526137269   16.25250501332933    9.84520904600991
C        -4.93959725723065   15.14470312887127    6.85817702305908
H        -5.59359155763730   15.29594897827651    7.71338905402603
H        -5.05061499915645   14.11654667853589    6.51467636568805
H        -5.26264496493942   15.80033320605027    6.05027860185819
C         3.90767119439757   18.61870112858724   11.03313515652477
C         4.58479079874185   19.28750218540079   12.22399604009495
H         4.25622031411100   20.31791032033999   12.34615703508379
H         5.66220040959939   19.29886477021007   12.05922102629335
H         4.40051881822081   18.74593683472890   13.14751422599109
C         4.28845293019932   17.13747819782654   10.95315116010810
H         5.32603579524729   17.03467388602283   10.63867647396926
H         3.65786042881738   16.63451813510039   10.22030778578209
H         4.17863234933777   16.63187054816159   11.90642832332821
C         4.38758098907515   19.27913778113954    9.73976399142262
H         5.43834276145536   19.05242754950265    9.56491364261584
H         4.28255880276032   20.36080407348403    9.78259228221235
H         3.80876693973785   18.88324492328180    8.90449612731694
C         1.28833432604283   18.37001643382082   12.66563377321366
C         1.51615581533496   19.44504538691799   13.72586589065427
H         2.56943343429086   19.59561844615820   13.93489399861936
H         1.03343921038117   19.13259163228231   14.65173049982860
H         1.08331149528483   20.39848719025833   13.43404710446919
C         1.82827377963019   17.02342797116538   13.14682914623840
H         1.78406575407889   16.29832297780696   12.33538072197884
H         1.22074627701407   16.65132388093665   13.97132552472993
H         2.85109317546307   17.10614757929633   13.50301975972910
C        -0.21613799059517   18.19809316091670   12.43799040630817
H        -0.69643098263236   19.13849216181440   12.18019806415642
H        -0.69335739988633   17.81496275231587   13.33890294992935
H        -0.37871964097795   17.48061121746829   11.63303447617843
C         1.64804051909979   20.53890316113865   10.75196355811840
H         0.70492696451816   20.70624213607776   11.27269321016484
H         2.41181540038336   21.13744392418277   11.25511823659072
C         1.51113038051350   20.99797261520470    9.29552618830034
H         2.50615968312325   21.20327427981829    8.90162671470020
H         0.94514129103330   21.93168785349408    9.25811291728808
C         1.53734456395898   20.43077096489005    6.47817936447687
C         2.96132401282556   19.87058415468123    6.41196592854072
H         3.60271765950636   20.31075444536202    7.17125766089399
H         3.40168137531165   20.08913591589465    5.44015570819372
H         2.95404584639091   18.79127161134418    6.54096656989697
C         0.75809733196471   19.86861184884954    5.28850369718316
H         0.53647324275627   18.81386106137197    5.43365679711666
H         1.35136643931990   19.96404132354952    4.37992788341897
H        -0.16930008338810   20.41262879524774    5.13363787279989
C         1.60806712558848   21.95348723680384    6.35704696828862
H         0.63202430039982   22.41681653506137    6.44742683019683
H         2.00680142845687   22.20418451270112    5.37436109995553
H         2.26878719844884   22.39293016224953    7.09909658075508
C        -1.08413325743130   20.17746538032682    8.11394198697263
C        -1.50091126701633   19.79772612049635    9.53680550799639
H        -1.05476898938643   18.82945777440493    9.79337629191460
H        -2.58330682932810   19.70691098552088    9.61390810555769
H        -1.17245310652593   20.54694704397766   10.25240434455644
C        -1.82286619577858   19.23854708771294    7.15655520257127
H        -1.77444323806691   19.57705629036585    6.12744437231494
H        -2.87473439808469   19.17926949398416    7.43419614052849
H        -1.40814762021890   18.23482428881749    7.21137063300583
C        -1.49669184144554   21.61782825366623    7.82822103927120
H        -0.93971826250162   22.33404389119412    8.42808426240443
H        -2.55289041671242   21.73471970759136    8.07103484805769
H        -1.37404494212674   21.86638536063791    6.77752636759422

