34
CSD_code = EKEDEE | q = 0 | S = 0 | Stoichiometry = C14H13N5NiO | MND = 4
Ni        4.86606091207594    3.76483810762408    0.93160663051179
O         5.91550217006268    4.11177110620529    2.38238911021479
N         3.79200582034733    3.26918134415186   -0.58514128172523
N         3.57352952554196    2.86793201716064    1.94823072853653
N         6.05353267739578    4.66726550180843   -0.12793709134426
N         7.07866824794916    5.20340579330384    0.08756167500396
N         8.06661197987616    5.75581552889571    0.11697583006573
C         4.08417402012387    3.42668817793102   -1.87849617203044
H         4.97819539181776    3.99614420418102   -2.09584856405104
C         3.30176372145587    2.90203315539287   -2.89010123125717
H         3.58056711483638    3.05707962854492   -3.91976234447278
C         2.16791931441615    2.17593185300764   -2.55790208906883
H         1.54043959089038    1.74359186318854   -3.32217986361396
C         1.85773174354531    2.01948470964543   -1.21882821459756
H         0.98472564026949    1.46456406535439   -0.91129854531554
C         2.68824842407899    2.58243471712771   -0.26016738498907
C         2.37682261664656    2.50234710343051    1.21014638839588
H         2.04829888356966    1.48569265162000    1.47780871934733
C         1.24749822716938    3.49738040600241    1.53042452320049
H         1.00366263686078    3.46022314554662    2.58959105377164
H         0.35692084604059    3.26308171047623    0.95298251149722
H         1.57546710491422    4.50633913819684    1.28459703932366
C         3.63230611988175    2.56727970303884    3.20569597265686
H         2.81393616971099    1.99111193735488    3.64673021374368
C         4.68382216873075    2.93591087036078    4.07791150927034
C         4.64381246335799    2.54665561488739    5.43145968169561
H         3.80670981326034    1.95171530906860    5.77141723418020
C         5.63303639383430    2.90928169795856    6.30226317725965
H         5.59237514724496    2.60605776641914    7.33713014218866
C         6.70715632597106    3.68392577530553    5.84190981797640
H         7.48679071999644    3.97091773736268    6.53264345990704
C         6.78184682562013    4.07871729528853    4.53583740442666
H         7.60563089384059    4.67269126390974    4.17105278529002
C         5.77963034866430    3.71860910025110    3.59669717400214

