77
CSD_code = EKEDEF | q = 0 | S = 0 | Stoichiometry = C22H50NiP2S2 | MND = 4
Ni        4.73966038845344    6.46186700262902    5.24354489500411
S         4.93920883314583    8.43478807565458    4.19609201197971
S         2.56227240193700    6.72566818449967    5.71215941627360
P         6.34658457498191    5.47006959297689    4.08108969468212
P         5.15305484410274    5.16835682371085    6.99648034428168
C         3.49920051733973    8.92062009840956    3.18992999635885
H         2.75602727842096    8.12688706653310    3.26222179355418
H         3.09465556323199    9.82986181854380    3.63947796502318
C         3.88665672640558    9.17633861621041    1.74517409972029
H         4.24981843392286    8.26538499049826    1.27512348380618
H         4.67061776465538    9.92928190000055    1.69302210813980
H         3.02168978600928    9.53213119413561    1.18695594517926
C         2.07164159650226    8.42415926994248    6.15571372500555
H         2.96363855951219    9.04949720593502    6.12701278825424
H         1.37526057073604    8.76082671511508    5.38491648819812
C         1.41057551985747    8.47768101042669    7.52059822478163
H         1.06406118099576    9.48985379929888    7.72511786489370
H         2.11051488595845    8.18831584190735    8.30098119786170
H         0.55758910934993    7.80267372682983    7.55267883536192
C         6.08268974858185    6.37167696892251    8.13847178961366
C         7.33557321796700    6.78932169733885    7.36912378309324
H         8.07606124926236    5.99359822691299    7.33940090848659
H         7.79476929859750    7.65522149655947    7.84494464416754
H         7.05184222335973    7.07415420405176    6.35353919586314
C         6.49509930640456    5.86210561058630    9.51490147408517
H         5.63965506140832    5.67993789749546   10.15895032986367
H         7.11368779400418    6.61924489592754    9.99762132246773
H         7.08649148009230    4.95104711429317    9.44032581798115
C         5.19773670519852    7.61487759403776    8.24837593346179
H         4.91653403192149    7.93751298201000    7.23612951588538
H         5.74042102054587    8.42965053661383    8.72625226775767
H         4.29422142548648    7.42430268454712    8.81897909190563
C         3.97371892198259    4.09607036389016    8.02610493665503
C         4.65733145667206    3.07666649382197    8.93749559612365
H         5.24957335495905    2.36089204974771    8.37291357908531
H         3.88731663788613    2.51811217608402    9.46939144175994
H         5.29516544737459    3.54635254205121    9.67770200758277
C         3.08508266714887    3.34672538248173    7.02832622655568
H         2.59705387905035    4.05427522251272    6.35984925916610
H         2.30965033589977    2.80233757195134    7.56540524130410
H         3.64927748184782    2.62462049546528    6.44254394512487
C         3.06023026726290    5.00937871015061    8.84275891458799
H         3.58794101485296    5.48954860877386    9.66216296765323
H         2.24452082102179    4.42720376979418    9.26990228352862
H         2.62906054430356    5.76620168589499    8.18998548237472
C         6.44431318334996    3.91818036184961    6.49245904631067
H         7.13479137991633    3.75648505708235    7.32452025397628
H         5.89715244597879    2.98745089887365    6.33622017602465
C         7.21904438894046    4.27377134284614    5.21778499952031
H         7.47341500685241    3.36729531807014    4.66205090345518
H         8.15489359759907    4.76509269232898    5.48770828098988
C         7.80871160395322    6.22186428515508    3.13348559584057
C         8.41539139778242    7.29013068561915    4.04865267677705
H         7.64793341276220    8.00101830542342    4.35083969402286
H         9.18754453494594    7.83807486879129    3.51047898455202
H         8.87530998360629    6.85546045334473    4.93320101243027
C         8.90399843993537    5.22954523970153    2.74260964656625
H         9.35686899280971    4.76155840677893    3.61308664004189
H         9.68922017676736    5.77179623956105    2.21607559832448
H         8.53981694645052    4.45139894182594    2.08136600168657
C         7.27801285420951    6.94144697480834    1.89413977355509
H         6.93817647128144    6.24643846397695    1.13128428781923
H         8.06708014083355    7.55268181132729    1.45758021427216
H         6.46041042164793    7.60017770092536    2.18121191194436
C         5.33434688900745    4.35950468377480    2.91569640427099
C         4.30830335059829    5.27709628675508    2.24788663909066
H         3.79218472587056    5.85450351409561    3.02773037525396
H         3.56388608055303    4.69114390890289    1.71008277576253
H         4.77072796086932    5.96735802509734    1.54933718312615
C         4.55192112288537    3.41023534329495    3.82273724820043
H         4.07297024520460    3.98886445788339    4.61569478240830
H         5.19176455443941    2.64466329096525    4.25505458906642
H         3.76977177823308    2.90929386970085    3.25322203797300
C         6.09832657191915    3.53827999785862    1.88310219365875
H         6.56296284481484    4.16141230671292    1.12443720623799
H         5.39813649467558    2.87283411826607    1.37728830760293
H         6.86087807264968    2.91954223318632    2.35322572480483

