64
CSD_code = EKEHUY | q = 1 | S = 0 | Stoichiometry = C31H22CdN5O4S(1+) | MND = 6
Cd       13.02608439034639    9.17649153742824    2.11694488189857
S        15.33453957048279    8.31429593462081    3.63577679312976
N        13.24350696770817   11.39917320670591    2.30181366476587
C        14.17846801211588   12.03300896746206    2.97670276916601
H        15.10184620312910   11.48830160507364    3.13948852666520
C        14.01955585255174   13.34015293852138    3.44928672107991
H        14.81430793707410   13.81067544228997    4.00570519173622
C        12.84206338315091   14.00105950204470    3.19550057089274
H        12.67879966600018   15.00825587074773    3.54969811661317
C        11.83632620227858   13.35513046642358    2.45570279836138
C        12.08797942666774   12.03115566062793    2.03012775031923
N        14.18949783524301    8.77182025343839    0.24711306284076
C        14.86955926753433    9.65684087887632   -0.44904219081074
H        14.48876347101786   10.67185071325006   -0.43577884831292
C        16.01872338262864    9.33683836480990   -1.17681682925721
H        16.54098876403026   10.10438012599557   -1.72563450147614
C        16.47044022863823    8.03966588538418   -1.16625678726240
H        17.36101833833876    7.75302170830426   -1.70624925742676
C        15.76322486128104    7.07195330988266   -0.43357877079977
C        14.61315245608040    7.49644730014533    0.26881812833193
N        13.81390639212538    8.76099180632737    4.03028710831764
O        15.72999180378741    9.15623916175151    2.52169206436091
O        15.42819349663414    6.90314707687784    3.39976342486128
O        12.82867712068828   10.25318427212019    5.42384743799401
O        10.96306182991917    9.49425411663471    3.64664289826061
C        11.08495545563472   11.33215505187317    1.26903265588031
C         9.87353960721321   11.99098273044247    0.95755661230367
C         8.92025167640302   11.27818573182626    0.21022696651321
H         7.98146664042125   11.74838306423208   -0.04293382498343
C         9.20078898189452    9.99189503895128   -0.18260144226473
H         8.49134586254519    9.41771575153364   -0.75676676164907
C        10.42753744346006    9.42655486366740    0.18116297602838
H        10.67805478552691    8.41342762904921   -0.11057079773881
N        11.33639399651358   10.07095873590507    0.87928667546009
C         9.65647985437302   13.32559966815879    1.40787776463165
H         8.71896501921534   13.80033244361383    1.16079091871469
C        10.59738983413296   13.97962867573670    2.12966210408722
H        10.42958975653825   14.98907313451076    2.47329736164506
C        13.87929295515066    6.54265355910583    1.05826432244290
C        14.32416109496246    5.20247510460258    1.10956630356348
C        13.60561830529429    4.30850492780877    1.91898973163634
H        13.92785951146337    3.28046866508563    1.99430067479056
C        12.50840191591421    4.76246915512443    2.61004141472758
H        11.93642963582802    4.10352536987108    3.24395883287559
C        12.14545663740427    6.10592236362055    2.49135461904817
H        11.28044990867489    6.49174507033198    3.01891098643187
N        12.80218409077017    6.96857028062392    1.74290365608783
C        15.48126773127908    4.81188969696013    0.37683341563378
H        15.79980845890067    3.78233847269828    0.44009224962341
C        16.17339189299818    5.70952551539879   -0.36321760349936
H        17.05816757380960    5.41528276222177   -0.90761756893530
C        15.10772251195147    9.59232319602439    5.81228945836874
C        16.09967395461053    8.88889221460580    5.14407414239076
C        17.37473433035259    8.77305184825767    5.64462493833628
H        18.13081450370241    8.22171920395366    5.10884871310346
C        17.64772082078952    9.38454644636975    6.86488491037737
H        18.63718322657464    9.30483134776865    7.28780689660465
C        16.66532609423542   10.09304393384089    7.54171147659270
H        16.90162104953453   10.55833470998398    8.48655706067931
C        15.38339666453358   10.20877028962031    7.02234111460971
H        14.60792855821629   10.75403649205061    7.53764635261414
C        13.80350768646916    9.57974803763129    5.08639467575220
H        10.44411875851163    8.81300932533838    4.08486846585064
H        11.52412635470572    9.87599338587425    4.36689482742506

