61
CSD_code = EKEJAG | q = 1 | S = 0 | Stoichiometry = C31H20HgN5O3S(1+) | MND = 5
Hg       12.17722795939169    8.64534561452976    7.44640837893030
S        10.62066868677517    7.56532363723304    9.56860606456643
O        10.40252455109566    6.91963014607873    8.28080326057720
O        11.50220955140395    6.85626211043982   10.44900367147086
O        10.30378589958536   11.15824798991463    9.02306386019545
N        12.75340518311156   10.79646418233590    6.97235910781908
N        10.47122053456796    9.49145391274916    6.18201961757333
N        12.60871760539194    6.65187878117661    6.42642246065814
N        13.80647634034339    7.63173492687879    8.68011559781860
N        11.17604224286755    9.06727985343175    9.21823676000465
C        13.84894372768644   11.42202875229593    7.35834734761825
H        14.68147751012367   10.79439858173337    7.65088322795126
C        13.96470790378080   12.81251445868809    7.38509464642533
H        14.88489816230223   13.26825196125736    7.71422634232929
C        12.88865135243134   13.57500137842984    6.99939319054046
H        12.93231314798561   14.65396860829535    7.01923454985375
C        11.71018975452563   12.93718380251593    6.57910062460120
C        10.55068077172808   13.66430484598560    6.18313473856101
H        10.59712931518395   14.74273478989429    6.19797988034628
C         9.41690791639007   13.02216154747199    5.81868593743689
H         8.53259602311351   13.57285498160987    5.53548220279272
C         9.35230684866399   11.59887323452568    5.81070018157362
C         8.18345761292919   10.90056332678822    5.46570877002084
H         7.29632490197219   11.45173947063591    5.19007265238765
C         8.18662638269166    9.52643744106078    5.49223417578071
H         7.30466668199989    8.95989051380927    5.23914955425355
C         9.35775765894646    8.85951842546074    5.85695042104718
H         9.38924118943261    7.77708940230200    5.90004179913658
C        10.48697886558617   10.84035533783728    6.17600892177388
C        11.68967246052878   11.52478012532748    6.58046895059748
C        12.04823887261258    6.18378527348432    5.32757994183684
H        11.66983761524424    6.92074219314538    4.62938530334319
C        11.94648138911780    4.82045093951600    5.04461130309451
H        11.47767586366871    4.49635845883661    4.12912896171385
C        12.43761546382603    3.91425396040802    5.95294176702447
H        12.36222352835158    2.85090948225636    5.77900961106335
C        13.04518335228882    4.38231153110729    7.12989878266961
C        13.56371163479467    3.50446519025038    8.12528924143673
H        13.49083661905624    2.44113562912511    7.95310079233467
C        14.11721233441830    3.98965202766153    9.26157454099436
H        14.49457918178995    3.32331545683672   10.02249930451586
C        14.21414492455120    5.39266676587701    9.48984557106446
C        14.76320591454899    5.93109234551646   10.66492590081988
H        15.12166537196875    5.26734256934801   11.43779327152175
C        14.82366101049593    7.29487840052386   10.81362180219545
H        15.23073048110280    7.74225922506536   11.70629786253865
C        14.33212345407449    8.10939137565661    9.79264212991172
H        14.36098956979379    9.18915339305972    9.88755406002561
C        13.73103573738924    6.29491672094868    8.51824703135474
C        13.11665539965919    5.78023102193413    7.32180244257199
C         9.08855717262631    8.08219963103567   10.31263576401073
C         8.09118953907348    7.38607501782011   10.95397816275637
H         8.15822355267048    6.31789725794075   11.08498181267388
C         7.00284738388150    8.11180154562797   11.42741098056982
H         6.20495172095617    7.59661036156022   11.93971427503194
C         6.93272797280727    9.48657677525568   11.25028167568062
H         6.07844202181012   10.02740159648177   11.62817284296480
C         7.94673683220273   10.17470093985725   10.59923574982307
H         7.91105103036348   11.24372233017121   10.45758574633786
C         9.03574605387732    9.45493297808721   10.13428932480839
C        10.22161225844570   10.00479746494236    9.41092714866684

