52
CSD_code = EKEQEQ | q = 0 | S = 0 | Stoichiometry = C25H22AuBrOP2 | MND = 2
Au        4.70078802773877    2.93520057024190    4.40355309002664
Br        5.70606300901667    1.90069112200344    2.53060885632974
P         3.84870253908010    3.69109291386586    6.33399166061578
P         6.08850502884073    5.55945121238718    5.87528950101562
O         5.82508320628233    5.86260582387500    4.46701351660287
C         4.52909295256815    5.32026493888643    6.83941983030080
C         2.05897796708279    3.97135878928069    6.39379865549131
C         1.55580542108224    4.95263088099573    5.53950006456221
C         0.19404922484578    5.16707666427841    5.45877768673124
C        -0.67352377495625    4.39083164816684    6.21232795565001
C        -0.17831691523582    3.39147547440886    7.03337675196611
C         1.18492422580349    3.17065631950762    7.12103635015800
C         4.20332485964479    2.64334095926678    7.76733106132556
C         4.85667632638688    1.43397011166772    7.56280168959820
C         5.15800535628206    0.61917009300904    8.63946611274414
C         4.80515556696355    1.00918188313715    9.92033828800464
C         4.14412753499888    2.21098720066115   10.12734324106069
C         3.84086811869481    3.02905904814109    9.05615780555901
C         6.96420223332055    6.91274061432422    6.72399850950552
C         8.31650664112226    7.02729956904274    6.42766979231913
C         9.05451187718132    8.07174649970846    6.95154351210058
C         8.43894658768647    9.00716298771337    7.76857377178032
C         7.08801308609612    8.90098661883156    8.05371869944219
C         6.34593134346364    7.85564486121945    7.53048876239029
C         7.10807199335028    4.09439441279452    6.17857706078960
C         7.73542032647053    3.50721212222590    5.08616701913532
C         8.50208206578459    2.36927692070835    5.26176992096092
C         8.65064857859879    1.83178197767055    6.53069792062564
C         8.05555366034904    2.43993208213270    7.62564950964444
C         7.28484571506407    3.57534567375697    7.45434467890748
H         3.84994228604156    6.11726193256461    6.51609832111761
H         4.68452623113741    5.36336027014536    7.91970564626464
H         2.23928674546303    5.53461132338124    4.93233176819865
H        -0.19300611849226    5.93195194734495    4.80229342435358
H        -1.73823476483348    4.55730849537516    6.14841349282116
H        -0.85636861215974    2.77515196524209    7.60491894562624
H         1.56971776159386    2.38122709305684    7.75162236771003
H         5.13233099974599    1.14220192552870    6.55685751254332
H         5.66880045649554   -0.31768084178938    8.47668043144065
H         5.04113787905594    0.37528039705372   10.76191366232140
H         3.86319261318174    2.50878889844738   11.12693577634569
H         3.31264561683909    3.96100290158451    9.21403610510246
H         8.77452350912218    6.29017299365454    5.78013790169267
H        10.10603086271305    8.16012406878622    6.72238655711134
H         9.01222504738974    9.82520333413309    8.17872788327478
H         6.60858776438948    9.63691403370498    8.68269506788554
H         5.28904945525892    7.78346493365112    7.74704071995493
H         7.60775181859118    3.94790458082103    4.10666528049084
H         8.96483892984019    1.89866056400238    4.40815614471041
H         9.23926453853735    0.93713539019377    6.66942313016840
H         8.18661644986202    2.02583104444817    8.61491749069089
H         6.82399774640227    4.05845275588367    8.30571109547576

