37
CSD_code = EKERUI | q = 0 | S = 0 | Stoichiometry = C14H18Cl2N2Zn | MND = 4
C         4.99378360794489    3.58186734633659    2.52077176422947
C         3.98707318109457    2.82498071801659    3.10810678155333
H         3.31054113475651    3.29474494623330    3.80617367103377
C         3.84436526149937    1.47861619529876    2.80081710400114
C         4.75479181231611    0.93234571225759    1.89907668433186
H         4.70280474426862   -0.10936256500669    1.62492413895250
C         5.72562122713874    1.74264737081964    1.34936632455427
H         6.44716760878508    1.35684617906759    0.64263661215149
C         5.16874197201539    5.02504025598179    2.83710898725177
H         4.46613414798734    5.34956075140465    3.59889200058040
H         5.01650966467799    5.61156560495170    1.93029547070702
H         6.18582808508221    5.21500641319594    3.17606178287110
C         2.75019089604857    0.65657290697866    3.39599886190925
H         2.45680056801087    1.04208880899132    4.36916538103130
H         3.05515993618545   -0.38213030686833    3.49561669109930
H         1.87763833881250    0.68913440264725    2.74322303985686
C         9.59770732557561    4.55054297265651    2.10726262255338
C        10.71731655247314    5.23957113968403    2.56093100075611
H        11.51915495870996    4.69177523773596    3.03275737082152
C        10.81116421239464    6.61465599332123    2.40441032327783
C         9.73707262475346    7.26038888649543    1.79364038524422
H         9.74682257459043    8.32918447834799    1.64998685147525
C         8.66151127762648    6.51497248380080    1.36210311883148
H         7.81312203054781    6.97780765045657    0.87747706626825
C         9.47435043806251    3.07644250046361    2.26535356562364
H         8.54384091892480    2.82913492188030    2.77367574267475
H        10.31197869390894    2.66819005310928    2.82304681821017
H         9.43541791103954    2.61262013775078    1.27892027859453
C        12.00117312177124    7.38273466630977    2.87510323792432
H        11.71460100851541    8.05359881136307    3.68421313415514
H        12.39800853902414    7.99338573538149    2.06631238740623
H        12.78221520770996    6.71763122843400    3.23285351963463
N         5.84315439633902    3.03513091695042    1.64632897847074
N         8.59178616960650    5.19268135795325    1.50819998422350
Zn        7.09480751069014    4.19248290696909    0.37341503340707
Cl        8.14211509219964    2.69961258213169   -0.88917046518875
Cl        5.83472724891127    5.82173059850328   -0.45005625048104

