75
CSD_code = EKESIX | q = 1 | S = 0 | Stoichiometry = C30H41CuN2P(1+) | MND = 3
Cu        4.36116277597588    9.94210034408479   20.69370222474091
N         4.95235330284058   11.42680332469281   19.44346014604653
N         5.46535482055979    8.78312544858280   19.44455025549579
P         3.13172523961791    9.70756352507335   22.52970577030539
C         4.67674763475414   12.71326639517914   19.45734854262578
H         4.00088673609491   13.05557867385017   20.22858715782920
C         5.21715386220037   13.61108265489107   18.53292883643054
H         4.95982370403345   14.65610876018542   18.59145553405621
C         6.07111377532340   13.14210180125407   17.56270097734216
H         6.50783500761862   13.80815657294900   16.83389518895942
C         6.37637728797589   11.77030267113711   17.52097228373426
C         5.78174123655198   10.94535144862884   18.49809501590635
C         6.05461272662224    9.53861264017128   18.49868916188467
C         6.91443244860259    8.99457452429560   17.52212449442914
C         7.14319814791746    7.60797054228417   17.56517511698892
H         7.79547717531108    7.15220102992381   16.83554085541577
C         6.52885836916601    6.85547425628263   18.53828991272091
H         6.68130908558293    5.79015991794522   18.59823566455442
C         5.69353570127259    7.48777034355146   19.46308709648375
H         5.19775522632852    6.92124334202060   20.23858250942740
C         7.24426108367279   11.18840406816869   16.55202797857614
H         7.69125379675376   11.83774174004460   15.81487202692995
C         7.50214104413432    9.85768951114506   16.55247231595066
H         8.15946219444734    9.42186691561284   15.81569458193301
C         3.98824582503822    8.84135608453919   23.94265081972837
H         4.43114356508585    9.65129307427316   24.53739710409568
C         5.13904660705246    7.99127427070412   23.39588163979521
H         4.73643407625428    7.16093350578119   22.81104183537371
H         5.76111317578329    8.59963590414655   22.73000197599529
C         5.97827238605403    7.43626428802588   24.54346738016810
H         6.78521032505944    6.81772738956814   24.14674807961892
H         6.43220353265522    8.26366191513706   25.09319996556243
C         5.10735574553547    6.61482163997098   25.48976861230262
H         4.71226519836448    5.74590378346734   24.95867628943223
H         5.70910242946256    6.25001962501604   26.32281105854862
C         3.94924457761415    7.45638773139994   26.01691139624938
H         4.34280260116132    8.28920271319804   26.60393059029634
H         3.32150896628730    6.85316030659658   26.67436194021575
C         3.10597923674365    7.99701722973484   24.86213104430021
H         2.68655228508811    7.15375677099056   24.31126463909424
H         2.28007955952036    8.58831022464897   25.25951555173152
C         1.55883510768956    8.77780734116128   22.19822440163985
H         1.05932473175515    8.53541390878270   23.14151874875607
C         1.93554704152556    7.48878517673014   21.46139419879130
H         2.57902353021169    6.86887201629946   22.08907330245935
H         2.50243114787665    7.75683677357646   20.56174352922219
C         0.69409284584520    6.69626505551543   21.06411704056426
H         0.99080366514168    5.78953775813491   20.53400510628986
H         0.15208466558689    6.39518344296909   21.96313541443499
C        -0.21612218465012    7.54467726317289   20.18389065890131
H         0.30581712206011    7.80084501278243   19.25894510423931
H        -1.11014396199670    6.97952358682133   19.91846713269629
C        -0.60848003588379    8.82118372865320   20.91858216049257
H        -1.24719951000800    9.43707525534033   20.28359092447840
H        -1.17876178147994    8.56183953091560   21.81318903531492
C         0.62743979259290    9.62102080834985   21.32506651633587
H         0.30671339170648   10.51433056302522   21.86329466679323
H         1.17210319844216    9.93914481237670   20.42926375950665
C         2.60997129865200   11.34660740321500   23.23271600035575
H         2.00897708111609   11.80293443406074   22.43366174374598
C         3.84570104757167   12.22676858375686   23.43555621901298
H         4.46028856685119   11.83052039252614   24.24671496575026
H         4.45642147667569   12.22338275996400   22.52567666208043
C         3.41629397233457   13.64688579431352   23.79487945082244
H         4.29661236428554   14.27354867497412   23.94744344669900
H         2.83797539103664   14.07479684056261   22.97234620481508
C         2.56204731503289   13.63204764946727   25.05996923836180
H         2.23592833050154   14.64516048306323   25.29779621085238
H         3.16249771406760   13.27056126885061   25.89739934332239
C         1.34625759247457   12.72733345142311   24.87992301966971
H         0.70697748826676   13.12948873595052   24.09058854765162
H         0.76259415829350   12.70461234253398   25.80126036953536
C         1.77729445106409   11.30755116219116   24.51193655325345
H         0.89435209460870   10.67934598883011   24.37831018808977
H         2.37246841477523   10.89643509054662   25.32896656384145

