87
CSD_code = EKESUJ | q = 1 | S = 0 | Stoichiometry = C35H47CuN2OP(1+) | MND = 3
Cu        1.31635763863768    2.68407663695129    2.63702917304982
P         1.30737778445247    4.16906011617372    0.97589310338253
N         2.32602348418051    1.94567224038473    4.22946111119071
C         2.34880767577300    2.63731965372403   -1.07772143188687
H         2.47308705110400    1.86689878053185   -0.31118970433534
H         3.23761735563139    3.26964077432731   -1.06639851296511
O         7.04951404114774    3.39240790612154    0.20720442321549
C        -1.48129814707265    1.66288094896223    3.18749302679976
H        -1.69924404666527    2.10000333067918    2.22271327825323
N        -0.24540954470481    1.82382258561420    3.63275025807279
C         0.10812399986730    1.31858478633543    4.82141756499880
C        -0.12608067962607    2.55021776044116   -0.77704110747589
H        -0.02521401266436    1.78534165098717    0.00118508165562
H        -1.03504493759638    3.12064631334524   -0.57771149233323
C         1.10507089861111    3.45950345620752   -0.73364101383263
H         0.98153328363930    4.27540886526732   -1.45500647010599
C         6.18890538602179    3.03854305804058    1.18236738173272
C         4.29361789438502    1.87714162957044    2.09959630700898
H         3.49485298068207    1.15839370786396    1.98351916680095
C         0.98431189721915    1.07228790326017   -2.47993243861538
H         1.10534526928758    0.26534724254775   -1.75362181637553
H         0.87937532533706    0.62127214859505   -3.46719376233568
C         5.56157036519248    3.36619808783302    3.48826132863097
H         5.72738519365947    3.85763232699385    4.43477456943226
C         3.07379220395686    6.07852873832730   -0.35779790987802
H         2.34337609146706    6.88526723582362   -0.39350595739738
H         2.97498049934234    5.49498319447730   -1.27408645483535
C         2.21133855125034    1.97557713159052   -2.44641471692562
H         2.11665148070318    2.74576076812637   -3.21512003121014
H         3.10898670941291    1.39452486767516   -2.66653813434271
C         1.50782844348768    1.54694346128202    5.21542396850534
C         4.49099430732470    2.48107070596570    3.33928760880986
C         6.38778562096696    3.65017706374796    2.42652055558186
H         7.21325664068013    4.33660922494954    2.52929249368516
C         2.99445682697618    6.04192947345352    2.15108054500713
H         2.82807353276140    5.40534023636445    3.02716184921504
H         2.24564954460361    6.83549099806362    2.15691497534801
C         2.85362479958372    5.20577775288604    0.87800943655883
H         3.64961320771069    4.44613400891766    0.90322467243492
C         6.93900112397761    2.79039876405161   -1.06369234895407
H         7.07544722182517    1.70695948620623   -1.00637386617900
H         7.73852850735137    3.22225722641286   -1.66234712950948
H         5.97528621962508    3.01461417052639   -1.53183320316560
C         5.13625926829187    2.13577323244014    1.03549837314082
H         4.97795310177044    1.62210954813783    0.10126571734417
C         4.15145883745743    1.96791001345878    5.75208909554199
H         5.20645578975784    2.10815455438815    5.92067563518980
C         4.47510179765690    6.68660085165300   -0.29018320746311
H         5.22267657030155    5.88974598314996   -0.28896863259275
H         4.64646558112167    7.30551644961913   -1.17229256704313
C         4.63363569549295    7.52769852072024    0.97239547315989
H         3.92480576221470    8.35831895368903    0.94673210537284
H         5.63855731573618    7.94944916885881    1.01242204219819
C        -2.09743656120302    0.44159401959185    5.13387354830067
H        -2.81933656359154   -0.10486841370790    5.72070539635267
C        -0.19728159247053    5.25601063236191    1.16375588960660
H        -1.01449819923949    4.59922729764754    0.83261984770191
C         3.62466606860957    2.13841974318481    4.46754943197336
C         4.38085912224581    6.67703186321652    2.21357878746143
H         4.46260824753463    7.29296648174788    3.11082302186625
H         5.13516551670817    5.89067892728146    2.27368662787894
C         3.31184576773925    1.59347111626718    6.78157723410462
H         3.69454913535334    1.46340441332791    7.78201226005246
C        -0.46535275367698    5.57146970498447    2.63754518383319
H         0.27973688184540    6.27028982686111    3.01919176433867
H        -0.39528578334310    4.65289339763280    3.23127504126110
C        -0.80358426511729    0.60766801863941    5.59822529960353
H        -0.50762817585120    0.17714345911254    6.54025154272223
C        -2.44961342247697    0.98259928824777    3.90597971179038
H        -3.44779437234842    0.87714072636403    3.51429078419642
C        -0.26332450916097    1.87947802845433   -2.14228810184550
H        -1.14023575136298    1.22995746148271   -2.14259095721302
H        -0.41613822948952    2.64569181030887   -2.90539355635865
C         1.96852286506933    1.36877208006111    6.51375424755826
H         1.29918385884420    1.07831235647347    7.30562326011455
C        -0.26451811013974    6.53347900187448    0.33076842107321
H        -0.06267677774672    6.32006313697374   -0.72063175268628
H         0.47468738595369    7.25129777309675    0.68772816348178
C        -1.65414805565509    7.15444045276123    0.47312455293697
H        -1.70561615758699    8.07287928454223   -0.11344107058749
H        -2.40459334090956    6.46548390070550    0.07871440919141
C        -1.85229269190357    6.19309290282897    2.78532054654296
H        -2.61060227976944    5.47455361864022    2.46459334836330
H        -2.04110884631040    6.43129461700067    3.83340325714702
C        -1.95977197202867    7.45789632306967    1.93723279874882
H        -2.96214398094078    7.87838287376037    2.02609336133468
H        -1.25256986687357    8.20266017951469    2.30849928758843

