79
CSD_code = EKETOE | q = 0 | S = 0 | Stoichiometry = C36H24B2F2FeN6O6S2 | MND = 6
Fe       -7.69770426153912   -3.72280963881519   -3.81307749855460
S        -9.46155753217304   -3.93198334536333    0.21764563960225
S        -5.91350367261679   -3.57123709662953    0.20956470608964
B       -10.65751524585169   -3.54576066323572   -3.77763280762115
B        -4.73756393738743   -3.89974284645091   -3.78679036470491
F       -11.99983057861632   -3.45374949606809   -3.77582503063508
F        -3.39526952739554   -3.99208025229621   -3.79030136234597
N        -8.85397329343504   -4.05633976573027   -2.35432103694572
N        -6.53669527723989   -3.40201943444589   -2.35491017457267
N        -8.74345542482037   -2.20686761578279   -4.18594179943046
N        -6.49643239304337   -2.72967096238445   -4.86239986067701
N        -8.90215153618379   -4.71073528672832   -4.86398036742521
N        -6.65315739003383   -5.23717134773106   -4.19637370999553
O       -10.19415687400116   -4.15972544145496   -2.49049892941360
O        -5.19683214341185   -3.29351374923538   -2.49553554792957
O       -10.06428067722400   -2.18473183637608   -3.90702578491668
O        -5.18658128547265   -3.05381439232153   -4.92225489639563
O       -10.21224111809171   -4.38580430646205   -4.91830381932251
O        -5.33135671248060   -5.26061167521542   -3.92262857519623
C        -8.38944757666639   -3.87731120590321   -1.14878200210891
C        -6.99402357779286   -3.60546331152010   -1.15043991752841
C        -8.25402553011489   -1.29927785165241   -4.99004963891257
C        -6.86730669591876   -1.54542860732436   -5.27416973195659
C        -8.53396545641735   -5.89482569155142   -5.27862299801066
C        -7.14643188116649   -6.14286326927655   -5.00025423354640
C        -8.37116414938999   -3.86336713917515    1.62064610004901
C        -9.04022360631297   -3.96155501421497    2.84158447250598
H       -10.11529099363430   -4.05505743718397    2.82271751797760
C        -8.35678668420308   -3.94236424454442    4.03832588593752
H        -8.89753632141075   -4.01961078957479    4.96824631856893
C        -6.97375837829634   -3.82605287351122    4.03426443413229
H        -6.42223561148060   -3.81249259646446    4.96096856943938
C        -6.30417134745039   -3.72564794845878    2.83375603676199
H        -5.22930912815615   -3.63114597886048    2.80890304456289
C        -6.98739257899821   -3.74021150504961    1.61678753760348
C        -9.01982233711770   -0.20143219032069   -5.58633082189160
C        -9.97781824680027    0.49308560858254   -4.85036801291111
H       -10.15749582719941    0.22582922954057   -3.82166328040108
C       -10.69187015775034    1.52163983488990   -5.43688113088549
H       -11.43009600230766    2.05609192725810   -4.85821971343633
C       -10.46615317789533    1.86421600730826   -6.75931691724484
H       -11.02671288854554    2.66690969177334   -7.21463752722473
C        -9.52339830746748    1.16899739860213   -7.50028572534093
H        -9.35155090063333    1.42578822707461   -8.53496662710142
C        -8.80243905548514    0.14336456911985   -6.92146331766896
H        -8.07925112445996   -0.40611426433032   -7.50465022729301
C        -5.97558804130814   -0.55137173844924   -5.87784974889862
C        -4.99725441380454   -0.92808967948980   -6.79589840165002
H        -4.89625735230636   -1.96517906205802   -7.07251470767957
C        -4.16296357448441    0.02475364276130   -7.35052581708698
H        -3.40962242326409   -0.27570132666814   -8.06304324061573
C        -4.28796840454505    1.35663465798639   -6.99315133873183
H        -3.63337624336420    2.09785848715318   -7.42667755641150
C        -5.25104694692020    1.73573244782367   -6.07132834820572
H        -5.34486549087378    2.77170757761294   -5.78167459180043
C        -6.09190952892236    0.79156427575336   -5.51590953868891
H        -6.83079144730181    1.08708279325046   -4.78680094068500
C        -9.42980111116389   -6.88736396378472   -5.87862887678663
C       -10.41184568197420   -6.50881334708520   -6.79193125770016
H       -10.51172387091728   -5.47164696991703   -7.06861408641041
C       -11.25117740193255   -7.45995649683649   -7.34179819288281
H       -12.00748190659714   -7.15805479836527   -8.05053397574587
C       -11.12748421596885   -8.79192988900293   -6.98431421827618
H       -11.78632133391062   -9.53176121021846   -7.41374637621928
C       -10.16050009682621   -9.17284355005817   -6.06735795412235
H       -10.06769291212054  -10.20887398579878   -5.77759485702089
C        -9.31457293498521   -8.23038702358066   -5.51674361543785
H        -8.57257926061580   -8.52729513174501   -4.79134777327661
C        -6.38458510244090   -7.24109756832345   -5.60077814387510
C        -6.60858524729805   -7.58468095200836   -6.93511599063354
H        -7.33334947256724   -7.03343697079178   -7.51465094350109
C        -5.89213983736045   -8.61129727194982   -7.51778781829810
H        -6.06913893810293   -8.86715932662985   -8.55182135955995
C        -4.94743598942202   -9.30875697180343   -6.78142117191543
H        -4.39058428121805  -10.11237520673548   -7.23964482366502
C        -4.71510719642372   -8.96735584593359   -5.45982637014444
H        -3.97539015479292   -9.50363331047717   -4.88477588634403
C        -5.42453886463908   -7.93776607787105   -4.86952002242202
H        -5.23968389753648   -7.67143762926522   -3.84147892899694

