75
CSD_code = EKETUK | q = 0 | S = 0 | Stoichiometry = C32H24B2F2FeN6O6S2 | MND = 6
Fe       18.09292814234600   -3.13367165993129   -2.90364468821091
S        15.94371264914891   -5.18341584246296    0.34739059390492
S        19.52869199686308   -5.30761861445539    0.64590602736266
O        15.81927503429642   -1.56781059638464   -2.29676183348139
O        20.72154012396349   -2.20837676019346   -3.36036785311618
O        15.66045147183293   -2.90141686945027   -4.31887489805050
O        20.38573603666596   -4.58954671116852   -3.68751880549655
O        15.46891047854467   -3.97015999252913   -2.13568064846268
O        20.48175300669684   -3.68228524813963   -1.43210305681736
N        17.15731927760766   -1.56069440130544   -2.47432651620168
N        19.42898067389529   -1.84879595759103   -3.20543192649436
N        16.94264829708081   -3.32153683589832   -4.37676811684184
N        19.09591274772797   -4.31156714520545   -3.97212239605573
N        16.79581270442615   -4.07547521248015   -1.90083941906333
N        19.13068555158428   -3.72147144765199   -1.43645473523511
B        15.15340330074227   -2.74068601304947   -2.93111624708581
B        21.02694863674428   -3.55924962082240   -2.82214312139799
F        13.82243503235317   -2.54444101322966   -2.95379852882936
F        22.35858531489263   -3.75145902809539   -2.80541462664001
C        17.76414839538702   -0.41408613120091   -2.63857631530882
C        19.15616871263083   -0.59741133156150   -2.94177485714078
C        17.28707338253189   -4.14792880751303   -5.32982730679325
C        18.63026159583589   -4.62598561415454   -5.15286033366339
C        17.15120925141182   -4.57300363592364   -0.74855564186856
C        18.56192768691820   -4.49172919022426   -0.55050853230432
C        17.11337557396555    0.89773682854735   -2.57978053992277
C        17.46139874305423    1.88320989463104   -3.50499286734759
H        18.19830189548755    1.66782028000979   -4.26366441038276
C        16.85173313555312    3.12156605526532   -3.46310647230026
H        17.12433395917868    3.87652564980859   -4.18543974192390
C        15.89186817171904    3.39501303701002   -2.50133289347576
H        15.41892590252031    4.36519422165473   -2.47007564848193
C        15.53633096732820    2.41868507556133   -1.58614862976052
H        14.78421059256777    2.62519161517952   -0.83970121910141
C        16.13826567237873    1.17453286355286   -1.62358547548842
H        15.85770776680034    0.41458836794180   -0.91235149351658
C        20.14710476878825    0.48094951636883   -2.88484085771388
C        20.07439712417011    1.43589834355652   -1.86972296763437
H        19.29633273623839    1.36675318773262   -1.12491425119107
C        21.00614764933602    2.45314802854304   -1.80536439615658
H        20.94496507581820    3.18507721994705   -1.01383611711935
C        22.01782464667188    2.53384136581927   -2.74926688740473
H        22.74316031467177    3.33199859169469   -2.69730292121652
C        22.10012364274857    1.58426609015037   -3.75367699670628
H        22.89083657264565    1.63926676875026   -4.48664525622403
C        21.17463346224956    0.55951310574066   -3.82285417951581
H        21.24174760668413   -0.18107612378687   -4.60346895196305
C        16.40074066857639   -4.60296914486033   -6.40459782900266
C        15.52508370743410   -3.72118017724641   -7.03507205881620
H        15.50113863319976   -2.68642243944149   -6.73343342416517
C        14.69407453929011   -4.17178309857774   -8.04398637737026
H        14.02089595653103   -3.48099008480420   -8.52886090130368
C        14.72006968503912   -5.50137162235148   -8.42971529898760
H        14.06821839679724   -5.85028949725830   -9.21660359203971
C        15.57982164048907   -6.38591217203071   -7.79775327337598
H        15.59551485836524   -7.42590947953970   -8.08787349135659
C        16.41688746517356   -5.94361798100386   -6.79247536605579
H        17.07460281947982   -6.63746175296249   -6.29158798650144
C        19.38731731369401   -5.32159172937096   -6.19719052371627
C        19.26911683615519   -4.90797008412680   -7.52515501017672
H        18.62752039662283   -4.07543262152673   -7.77053883896960
C        19.98509280960881   -5.54689621593205   -8.51810547201064
H        19.89091002955801   -5.21698288859766   -9.54200750011483
C        20.82423534488088   -6.60420517302342   -8.20349664021669
H        21.38159851745145   -7.10233448926497   -8.98264600862911
C        20.95113252389081   -7.01449305554782   -6.88717532853070
H        21.60864036260188   -7.83330593446978   -6.63688199830213
C        20.24137235984658   -6.37775553521788   -5.88595623488748
H        20.34451773853893   -6.69644328110031   -4.86134235137006
C        17.00996044733899   -5.53564523037199    1.79529595409099
H        17.29212838971559   -4.59286619971153    2.26372405710729
H        16.36900684499006   -6.09598390793698    2.47522490600663
C        18.22958083750918   -6.34507090328507    1.41620995386581
H        17.97015060821308   -7.15221762492560    0.73124723738877
H        18.70612478630321   -6.76537397856554    2.30130035528305

