83
CSD_code = EKEVAS | q = 0 | S = 0 | Stoichiometry = C32H30B2FeN6O6S6 | MND = 6
Fe       -1.03600191344398    9.17400438721303    3.64729429586377
S        -2.42189587638748    7.48551920396208   -0.17226461478948
S        -4.69102128179825    7.04140475551426    2.53426081925744
S         0.41358290491079   13.18383477975162    2.60699729697744
O        -0.27729413481763    9.02613195576205    0.91359530267367
O         1.28215585579207    8.02431376249757    2.49523225401343
O         1.11464948208999   10.45723587952614    2.31883374602516
N        -1.25166505002533    8.80644814093093    1.81715047073111
N         0.51027925864429    8.12502068997788    3.59376696153403
N         0.04650034759196   10.61268385999189    3.12575094860455
B         1.08977045576815    9.16718909621436    1.53692371298708
C        -2.26199649404654    8.06280812199245    1.46368803925372
C        -3.10800266723604    7.76268816019289    2.56395523955803
C        -4.10268302947721    6.90889921929943   -0.24659948523892
C        -4.52078807056551    6.59301751889297   -1.53958689324891
H        -3.81309814953362    6.71935724029142   -2.34472156304776
C        -5.79595333463870    6.13308229938946   -1.78984830976188
H        -6.09332702043633    5.89409160612092   -2.79869713159485
C        -6.68876828869846    5.98644359055412   -0.73781772864444
H        -7.69239527782959    5.63369752685141   -0.91554915744628
C        -6.28522283204704    6.29564995875557    0.54335643553541
H        -6.96407698080613    6.18697653717518    1.37550105401055
C        -4.99395602740929    6.75334615773546    0.80834666073569
C        -0.42332962525631   11.81774625460880    3.28798418022852
C        -0.47533186371050   14.58799508556466    3.23640274934675
C         0.06910495236034   15.80782523228434    2.83254626045729
H         0.93855476504674   15.78582936866691    2.19327360152788
C        -0.47802630987689   17.00741967297692    3.23402882443728
H        -0.03743258766067   17.93610698227949    2.90739568347213
C         2.23061347617349    9.16849479488858    0.39320071242279
H         1.86738467351773    8.59894345306517   -0.46208147522502
H         2.39222774075847   10.19080441437319    0.05123123162934
C         3.56673546392594    8.57606513121025    0.85158141949518
H         3.39073335093256    7.56762447188310    1.22760585646708
H         4.24626973462102    8.50714090204560   -0.00188299527620
C         4.22208181926740    9.40934122635987    1.94883323596332
H         3.50788649251077    9.54183269509528    2.76111737456118
H         4.45873139259714   10.40030913641638    1.55629213215714
C         5.48861696347559    8.75030122228424    2.48153382328940
H         5.94727619612164    9.36252334798949    3.25521801173882
H         6.21202393677717    8.61019886094475    1.68075630771558
H         5.25553179663946    7.77593450169449    2.90579120711156
S         0.34982875951573    7.48470700703631    7.46654511768122
S         2.61877387830550    7.04080793666757    4.75987776713519
S        -2.48413744432113   13.18408453684446    4.68883708748774
O        -1.79471678446837    9.02569797116154    6.38095877985242
O        -3.35444070809105    8.02466351761867    4.79907554683288
O        -3.18628837554625   10.45751669065078    4.97608698704265
N        -0.82038319744331    8.80606048811129    5.47736450112833
N        -2.58250501070356    8.12535773803306    3.70059013875399
N        -2.11811416558327   10.61289596921421    4.16919025041412
B        -3.16175297548742    9.16725808739967    5.75764400088024
C         0.18989816998048    8.06228395230232    5.83069277267824
C         1.03581104443935    7.76221142135205    4.73034346970175
C         2.03073928680328    6.90844032968443    7.54079554593606
C         2.44905533254570    6.59285501797819    8.83378828974949
H         1.74135976301187    6.71895730338716    9.63895365517919
C         3.72432365846391    6.13314528842270    9.08397635817341
H         4.02180283889289    5.89427125284245   10.09282122155522
C         4.61706238810882    5.98655123579938    8.03186769281948
H         5.62081274396306    5.63411889160579    8.20953012488592
C         4.21334855183560    6.29562632960235    6.75070801747364
H         4.89216522481467    6.18706241963392    5.91851825130524
C         2.92194398840278    6.75297512739953    6.48578680446650
C        -1.64787078728001   11.81785101373271    4.00732951262877
C        -1.59556545635103   14.58809812136983    4.05859395377563
C        -2.14034480573653   15.80803513869836    4.46166287460456
H        -3.00975177332136   15.78621178231538    5.10099817021986
C        -1.59349459713838   17.00752565603975    4.05948221189228
H        -2.03427176825218   17.93629768945618    4.38562443069262
C        -4.30263489319467    9.16854841167206    6.90134426226904
H        -3.93932524217763    8.59914632939353    7.75666882111505
H        -4.46438675071988   10.19086738745902    7.24319833686530
C        -5.63870732126605    8.57589328518596    6.44315567089581
H        -5.46253411570011    7.56748790913555    6.06712543300630
H        -6.31816244466475    8.50681776264021    7.29670610239112
C        -6.29422171329328    9.40908725676221    5.34595480895062
H        -5.58012468657365    9.54172650660715    4.53358399459108
H        -6.53102340017000   10.40002207048687    5.73851209001192
C        -7.56066860462051    8.74979133446232    4.81339316860430
H        -8.01956363202264    9.36199454878431    4.03985151269586
H        -8.28393182041425    8.60945742448335    5.61426505993408
H        -7.32744739837244    7.77551065533264    4.38900070821664

