51
CSD_code = EKEWIB | q = 1 | S = 0 | Stoichiometry = C21H21N4O4Pt(1+) | MND = 4
Pt        5.96913134919885    6.24091286588922    2.60386977283596
N         6.72245171867404    7.52755331128500    1.29474197533262
N         5.01644693348774    5.04615897272807    4.09160446809696
H         4.14306196710164    5.50245119097328    4.35754261271444
H         5.55279614452969    4.89538654358129    4.94483512625454
H         4.79004089537384    4.13725628476842    3.68830856608628
O         3.15402660742154    9.06522622042866    2.36267644740656
N         7.90800290846392    5.68566227109273    3.59800375894024
H         7.84597935937841    4.83461349406081    4.15176611870724
H         8.23876821654376    6.42867897478174    4.20972189706442
H         8.61755124564671    5.51943267954640    2.88793934854972
O         5.13944187623068    3.97672328899278    1.27613216839031
N         4.23572579443780    6.72084949690257    1.70857062096880
H         3.70002095946140    8.24420817645749    2.48628852644622
C         1.91068227717931    9.44559602238068   -1.61344448460558
C         8.37644174251686    9.02160494194057    0.44293829362468
H         9.38459780924829    9.39791196624786    0.49780974313877
O         1.37961185625477   10.93642771030621    1.64559995492743
C         6.19669632001871    8.99373084808821   -0.51421800855996
H         5.46785750468701    9.33845796406914   -1.22872989411954
C         7.47795132400438    9.50643633801248   -0.50040474440822
H         7.77415365446609   10.26876988897374   -1.20289412295652
C         5.84135230145638    8.00406900205132    0.39715343644363
C         2.95813318993396    8.45648006128003   -1.28851308929580
C         5.58292501650709    3.03236140312820    0.41674721715104
H         6.49402732653988    2.52815839900740    0.66989205582996
C        -0.05358460870865   11.29871334308319   -2.29313063319495
H        -0.81565245505392   12.01635079980926   -2.55520274842680
C         3.32600135251033    5.59932151215783    1.50123324612733
H         2.93727834086924    5.25880213102367    2.46670856438835
H         2.46843146972403    5.94224192060900    0.91160030446438
O         3.44596470090822    7.71870907230591   -2.13255994192778
C         4.73530599107421    2.90831402031844   -0.63437535482795
H         4.83007574724195    2.24142038620582   -1.46539113469486
C         3.38635970013757    8.39478359254867    0.10735086833995
C         3.98101150052315    4.47173543024707    0.75951906797959
C         7.95833506073380    8.04102939789563    1.31684908398765
H         8.64257646367726    7.65921251228056    2.06149001466507
C         4.48070928060569    7.37987910641481    0.42305051214284
H         4.46593484141536    6.65351593913225   -0.41331660371191
C         1.46008533043661    9.54618905665576   -2.92536254132333
H         1.89080723257586    8.89041994140709   -3.66737379186477
C         1.36846475052530   10.28479898683083   -0.63092715820168
C         0.38814231230037   11.20855036420657   -0.98372819012830
H        -0.01717140168155   11.84610911541187   -0.21238238649975
C         3.69658116925740    3.85061004981236   -0.41684330704649
H         2.85561257538058    4.03522585902921   -1.05220531298718
C         1.80399120767852   10.21346778918871    0.77488406881067
C         2.83700527351918    9.16336844248410    1.08043706070573
C         0.48175193999705   10.46667209983420   -3.26402516413887
H         0.13810592550643   10.53394081402998   -4.28483628752902

