72
CSD_code = EKEXAV | q = 0 | S = 0 | Stoichiometry = C37H27IrN4O2S | MND = 6
Ir       13.05920195521103    1.93423408517497    0.93395052434573
S        15.38720981541735    3.24717504172447   -0.97398572794632
O        15.94186280862026    3.33197151354613    0.35222314291840
C        13.08131563493243    3.97395952356533   -2.94168353074045
H        14.09832497441000    4.13909269938505   -3.25626797175024
N        13.79337311192429    3.01874969988550   -0.80779786271394
N        12.95630006237969    3.54210410042198    2.11675537288967
C         9.10563733457077    3.47472605230836   -1.65638625435466
H         8.27763096667167    3.78064521172425   -2.28021226550260
N        13.24493021360098    0.27516710358856   -0.19903192943028
C        12.85031450831961    3.41252573881971   -1.68761767449624
O        15.72147981364546    4.32824456002894   -1.87094840748612
C        12.10584668168469    1.11850356294121    2.51444139205755
C        10.59553714008893    0.38134229357105    4.77332938571041
H        10.01369831603059    0.09138252770593    5.63581338164564
C        11.66640300952090   -0.19094084630391    2.69643396062388
H        11.91166151713834   -0.94650809591805    1.96211963584868
C        14.34917349395534   -0.47942739943608    0.02756938912861
C        13.38080601728655    5.82773507257952    2.63306207264272
H        13.84156780685694    6.75859997290534    2.34524750473524
N        11.24602208925851    2.67574575411483   -0.07589387719244
C        11.48464040513701    3.23789225721631   -1.27900823578176
C        17.60340582662881   -0.04226542928276   -1.72823109213911
H        18.47457343809014   -0.51961512567428   -1.30486254126770
C        10.92367184010103   -0.55726117515388    3.80674194709186
H        10.59795925674470   -1.58137529328144    3.92224464722272
C        10.42226738135759    3.65295664276213   -2.13114831504725
C        11.76875335548075    2.05957263417149    3.51598400143122
C        17.10333202706519    1.11630296337011   -1.15796132732866
H        17.54942751598136    1.56486664153379   -0.28474324069041
C        12.03003068747643    4.36112129628742   -3.76427906663881
H        12.26047148014757    4.79293133191738   -4.72792894435619
C        12.66869603074997    5.71240140462143    3.81860437099973
H        12.55524876477995    6.55840944786219    4.47976551417544
C        12.11519201441262    4.48854713785760    4.14246046309589
H        11.56761225360662    4.36678435348058    5.06295034716678
C        12.42819947190110   -0.07097531918452   -1.19276775173172
H        11.55317656371787    0.54598207525350   -1.34119808473457
C        11.01856358083440    1.68726276243735    4.63065170486479
H        10.75976609027756    2.41374157362958    5.38679523117688
C        13.49852954156776    4.71853931167313    1.81564490665840
H        14.06710231096818    4.76721379899447    0.89835125820221
C        16.35879002339658   -0.64282130687229    1.52763572669085
H        16.69705331441008   -1.54387059327769    1.03736364535351
C        16.98671427642616   -0.58307551686324   -2.84510920293371
H        17.37819128202825   -1.48407887187619   -3.29487457913809
C        12.27307824132865    3.40602473261007    3.27935164366340
C        14.61448674489104   -1.60483741744166   -0.75511985825199
H        15.49095756911544   -2.19798567930223   -0.55498764548211
C        12.64367718064203   -1.16147865925404   -2.01049966399728
H        11.94809484831420   -1.38934620841513   -2.80214203879579
C        15.18239652650369   -0.01036176966792    1.11741920077042
C        15.99203059378318    1.72116723152003   -1.71042465742309
C         8.89875192744581    2.92304401367168   -0.42115519310046
H         7.90499942964048    2.77900690430090   -0.02649358801147
C        16.66802490881913    1.04633336743831    3.19188458700911
H        17.25237208006140    1.46325960129673    3.99987907845368
C        13.76410685007160   -1.95046796664876   -1.78347071790441
H        13.96364645472608   -2.81544816812752   -2.39750513748088
C        15.49883685788065    1.66863048454007    2.79584506696822
H        15.19180529978464    2.56908442904684    3.30658458706276
C        10.71766041736471    4.21076810619045   -3.38370717209078
H         9.90825485419375    4.52018014031688   -4.02756029921523
C        10.00677925607571    2.53041810154073    0.33917317792423
H         9.87200594862070    2.07613232744426    1.31111670896330
C        15.36993275816603    1.18870803912385   -2.82262464127253
H        14.50200746590335    1.67887983368785   -3.23778661569473
C        15.87040288631912    0.02937357341874   -3.39217042057509
H        15.39253448036081   -0.39338448392606   -4.26378717068834
C        14.73448910359599    1.16819291438496    1.74755984325939
C        17.09985546055841   -0.11223842367341    2.55973526459895
H        18.01374585102673   -0.59437019800911    2.87558401803065

