72
CSD_code = EKEXEZ | q = 0 | S = 0 | Stoichiometry = C37H23F4IrN4O2S | MND = 6
Ir        6.57200520420359    4.34663980493796    9.47627270818202
S         8.39820801912407    6.95914148741381    8.47483111848785
F         2.03440538943028    2.36797773638775   11.69426483447159
O         8.90159969825404    7.65371424520114    7.31774639488145
O         7.35389804423646    7.62191087442102    9.21252940995886
F         4.92457271850329    8.29737521674085   12.54672407879939
N         7.87420346766175    5.44909737625652    8.13822046177742
F         5.90612045083675   -0.21938737331358   12.03270681268237
C         8.36187408892704    0.85507774105498   11.05211539478346
H         8.00377079540520    0.00405476695091   11.60391484019694
N         7.93653567859018    2.94625954999570    9.97937305703596
C         7.37867793320248    3.60645460418069    6.72406130329655
C         4.57480671941460    5.88324331129765    7.94023333892095
H         4.75731827363047    5.11153125260336    7.20496088704883
N         5.19811446213631    5.75458799070872    9.10685272095699
N         6.43242267874641    3.24801378820644    7.61860617810763
C         7.59763157086972    2.85286841549134    5.53583477272741
C         6.70857988458645    5.39397577494975   11.19011960737525
C         5.80456497107229    6.47864830666645   11.26528362209357
C         5.32273739144732    0.92933661921505   11.62298079259509
C         3.35198812230512    2.22130980749498   11.45655187357087
C        11.91286609496159    5.75168823804675   10.08037020292695
H        12.80299664916868    5.23538690194978    9.75189729508198
C         9.22794585787468    3.02209625333722    9.67200511358217
H         9.54144281682064    3.90166190822453    9.12944012211256
C         9.75915090517486    6.67659496795522    9.61384582573889
C         5.68009866831490    2.19379372698814    7.38430817503796
H         4.92620443857814    1.96221564570583    8.12403224626889
C         9.64084322389335    7.10281599885251   10.92112314970416
H         8.74856367095679    7.63664223470813   11.20517532083929
C         8.58770952572938    3.26094402348130    4.63037222640081
H         8.75383765352583    2.68312752318818    3.73416265264054
C        10.14719478917453    2.05177190732007   10.02116342755476
H        11.18328186714205    2.16761869607770    9.74814341207547
C         5.78950089630764    7.26878729942270   12.41282949883933
C         9.11057590931526    5.14775107410437    6.04604780781006
H         9.67694525092812    6.05067642347688    6.19622575508691
C         7.48464868595469    1.87066315631488   10.67082479857287
C         4.03551831556539    3.22495749681154   10.79742570275962
H         3.49035562508464    4.10707080447350   10.49821639834130
C         5.39702723653701    3.09725787681598   10.53362990267875
C         9.31733177377572    4.39426900662271    4.89595688537854
H        10.07659288452499    4.71686052740933    4.19817132970554
C         3.97275447645192    1.05793717503855   11.87613878952083
H         3.42842780968201    0.27960999850132   12.38422781014475
C         5.82483715864115    1.39338195190538    6.24577028163497
H         5.18080631512025    0.53862660021717    6.11174719334634
C         8.14870827451527    4.78970928084825    6.98777325162330
C         9.70207935537300    0.94353229645277   10.72650608572103
H        10.38695368125242    0.16362919252906   11.02150507899641
C         4.16147132500039    7.77534304707907    9.83418217433470
H         4.02084491190590    8.52477192392500   10.59261268367988
C        11.79271895823289    6.16014157656839   11.39948687362631
H        12.58844039378907    5.95373889568310   12.09985230304859
C         5.01192840426593    6.69411845841490   10.06103083196677
C        10.89075611066323    6.01109836933365    9.18153646169695
H        10.97119733866913    5.71179706967836    8.14697008982007
C         3.72846595083063    6.93428740764699    7.64696747104420
H         3.25426276301890    6.99503696898906    6.68055682184993
C         6.78730010106543    1.71699038352981    5.32851351107834
H         6.93709245644839    1.12195674171196    4.43910522979911
C         6.05732075974833    1.91783907681161   10.96662886871385
C         6.63946773406364    7.03993875469911   13.47780055033003
H         6.61052993862816    7.66792345255458   14.35278399195506
C         7.52398959105222    5.98406049464033   13.37225951388142
C         7.56226333441131    5.16212639021543   12.26174238294778
H         8.27432682478676    4.35089625354497   12.25295213749447
C         3.51895362104172    7.90140528733289    8.61846676519981
H         2.87104721185810    8.74322302298384    8.42787496144708
C        10.66193085156679    6.84157270244257   11.82013829655106
H        10.57590800848936    7.16580699327594   12.84597173536616
F         8.37904803753440    5.75121724529386   14.39164639609311

