45
CSD_code = EKIGEM | q = 0 | S = 0 | Stoichiometry = C12H18N8O6Zn | MND = 6
Zn        4.57721592891193    6.97865636793291   -0.00006079519316
N         4.76579615333837    2.83436799837572   -0.10424993728309
N         4.92446630242716    5.05601568442939    0.04770922662419
N         6.81737804713162    5.15718183616429    1.48468038226245
N         5.81676389641375    3.15151026830240    0.68331996202066
O         4.86695508350135    7.02002076244895    2.16991224350984
H         5.62264979346988    6.40251254481117    2.23919425511756
H         5.17278925409814    7.86672382349133    2.50679394826424
O         2.43514088159176    6.59322151762310    0.00352326149143
H         2.11074409612399    7.35472337581385   -0.53936871700052
H         2.00484976894470    6.64161455562294    0.86059638658350
O         6.61704816073495    1.06998506657872    1.23260601531284
C         4.26762967767869    3.97673921932653   -0.45449601232779
H         3.39915632654968    4.06022238913246   -1.07507538767476
C         5.90778212423180    4.50350113396261    0.77978333498583
C         7.71375918352053    4.37567930286309    2.14468084212100
C         7.68479361439772    3.01394939924145    2.09182838006021
H         8.41189656325461    2.42929805596594    2.63063446993033
C         6.71328024289974    2.26944322370736    1.33812824114121
C         8.74503990185848    5.12738628210150    2.92685600114001
H         9.42977211038336    5.63261769840429    2.24654026335280
H         9.31359314743612    4.45170862270445    3.55739288965472
H         8.27117954326905    5.88647631448606    3.54622205704354
N         4.38792320662581   11.12278117733697    0.10160797107243
N         4.23008672028319    8.90103783486659   -0.05004992086817
N         2.33558357296728    8.79899964803207   -1.48485603090234
N         3.33645361552318   10.80513099928076   -0.68514867628742
O         4.28593175039151    6.93563046179717   -2.17068367374695
H         3.53188591064435    7.55479867206236   -2.24216602262752
H         3.97663095400331    6.08818050076214   -2.50268792168619
O         6.71875580919224    7.36292587167288   -0.00719390480690
H         7.04346051292272    6.60391865044328    0.53895156116335
H         7.14844198063883    7.31076026263072   -0.86446040750024
O         2.53385888764720   12.88628421337740   -1.23270068942129
C         4.88780940096358    9.98068189572886    0.45024668026912
H         5.75669844446614    9.89748846389853    1.07028495548836
C         3.24588333364515    9.45304038419501   -0.78131408526272
C         1.43746453140639    9.58000868791055   -2.14306925150292
C         1.46564555043794   10.94172351064065   -2.09006395844531
H         0.73666606466755   11.52602352215664   -2.62671344761837
C         2.43838038284381   11.68674151856999   -1.33845383674984
C         0.40486590042671    8.82745433170484   -2.92263839938014
H        -0.27456914862353    8.31701689330649   -2.24087818673065
H        -0.16928590790677    9.50325663923358   -3.54795628030566
H         0.87854872466946    8.07256041689121   -3.54720778528286

