88
CSD_code = EKINOC | q = 0 | S = 0 | Stoichiometry = C22H58P2PtSi5 | MND = 3
Si        0.54192730246470    4.49427642959694    5.04952047395422
C         0.96596651762341    3.73784778413249    6.79292060665904
C         0.58591768835752    4.85653752932762    7.78229175655173
H        -0.48039623009026    4.80086120712680    7.99967226297183
H         1.11656047729992    4.75086740368888    8.73162654932826
C         0.88272233900498    6.22879327064197    7.16529907585756
H         1.96349492458960    6.36341881767287    7.13024069921882
H         0.47759029414130    7.01991031669105    7.80088010581601
C         0.31105245833806    6.30146067940255    5.73607125597628
Pt        0.37770805161932    3.59417030061922    2.98145936259324
P        -1.52734919179704    2.57899560474808    1.94594807937152
P         2.07826719520873    3.40743781893107    1.30594688973594
Si       -0.17294034527381    2.19077278720531    6.96004431376021
C        -2.00014611843973    2.66751903453492    6.66059046123812
H        -2.10285481250587    3.31569432436313    5.79803184282104
H        -2.43088900221275    3.17215237600933    7.51940274057428
H        -2.60232031522217    1.78132391756794    6.48363082434010
C        -0.16775246387030    1.37013942900238    8.68829647144887
H        -1.12551312081865    0.89846074945761    8.88684264770727
H         0.00058494599785    2.10430682569014    9.46921305027710
H         0.59556757878477    0.60772402727828    8.78379430420034
C         0.29539530134700    0.96124705003570    5.57987563319344
H        -0.39474871780318    0.12408920625373    5.53971125172380
H         1.29236112975684    0.55863465565792    5.71631987575510
H         0.27144619818370    1.46351374094583    4.60785477708595
Si        2.82807023382000    3.24896574348884    6.91911246875645
C         3.13614667618360    1.81698439258825    8.15086936438430
H         4.20234998646828    1.65688172485518    8.28423701263155
H         2.70977226211046    0.88527057876943    7.79748974611402
H         2.71529806463046    2.02428232788363    9.12852935670489
C         3.51537846864338    2.68060650481384    5.22668840264117
H         4.01470008763314    1.72072937117176    5.31263201433385
H         4.24397224297318    3.38828474365282    4.84358884418424
H         2.72883626415776    2.58471322266810    4.48127166677181
C         3.97117609957354    4.64078198086641    7.56740613605811
H         3.60176001300851    5.07327591163517    8.49144790562708
H         4.09292146503354    5.44259891040209    6.84910835962928
H         4.96026396784387    4.24052396350790    7.77280412939291
Si       -1.54319686254634    6.83423808944792    5.71380247606468
C        -2.50718952020783    6.41765543200990    7.31430773196722
H        -3.48333897615037    6.89444504209857    7.29162832636484
H        -1.99592754341038    6.77518907101558    8.20211933636612
H        -2.67325372215206    5.35343797598042    7.43079163148363
C        -1.76573391376909    8.72772018540676    5.54745153204849
H        -1.44128799094727    9.08624871753922    4.57746281504468
H        -1.20957044919883    9.26994826739851    6.30418950684218
H        -2.81236994143706    8.99610285210783    5.65998938443694
C        -2.48317219134664    6.03363693117218    4.25255541046713
H        -3.20868366039804    5.30823440365595    4.60722286829904
H        -1.81145690219488    5.51755739029236    3.56992264966220
H        -3.02808482127737    6.78105613012016    3.68475137447756
Si        1.37152127944853    7.41857198240968    4.57581695560792
C         3.16665667076909    6.76784268398049    4.47754909229048
H         3.18962756956657    5.69103918493742    4.35666153525944
H         3.73710359414198    7.02359751771946    5.36468521751261
H         3.68722428096682    7.20793537748896    3.63228193846110
C         0.65281894517036    7.28796973772968    2.81459414846032
H         1.27899524985924    7.79755472329733    2.08868046202330
H        -0.34058115214009    7.71641634496447    2.74943516268846
H         0.58003557550453    6.23742613136396    2.51711612347324
C         1.55133030472938    9.23564698382206    5.14690850981485
H         2.49515463262992    9.64878024897745    4.80373130318952
H         1.53956292226996    9.30859722630403    6.22937394545782
H         0.76129906581187    9.87108022940079    4.76602411217936
C        -2.41513293910018    3.52747436113284    0.63777160159278
H        -3.25330071687448    2.95855748326474    0.23732451265109
H        -1.72600196902443    3.77116287584439   -0.16796614666067
H        -2.78144496132933    4.45803911565367    1.06603608196645
C        -1.29885807824324    0.97810311591314    1.05338279371496
H        -0.90198930929281    0.24077384383579    1.74856446505261
H        -0.57980978409022    1.10921691876876    0.24718280253747
H        -2.23877366835520    0.61402414295049    0.64052185986643
C        -2.97469578520581    2.10154922400734    2.98269164984401
H        -3.75122109108166    1.62468995468663    2.38578647162722
H        -3.37951381471345    2.99131051182836    3.45818526637612
H        -2.64326542844783    1.41999803987455    3.76235913736992
C         2.89470496537965    1.76631843792919    1.11116720999995
H         3.65067847893645    1.79206785901139    0.32737570058954
H         2.14791811386482    1.01344094696746    0.86817089104618
H         3.36095740352353    1.49163404769605    2.05478063971777
C         1.66553040327384    3.74575105640692   -0.46327261801781
H         1.28461610291745    4.76161791188064   -0.54924438144142
H         0.88791611080011    3.05993878872674   -0.79390155581776
H         2.53877076715053    3.63393724512760   -1.10470982344942
C         3.58400951550688    4.46261930523180    1.43459616733041
H         4.26422899245371    4.28859605847920    0.60174845047112
H         4.09244356528248    4.24122059432366    2.36945538882254
H         3.28555276621566    5.50807463693902    1.44966916545984

