30
CSD_code = EKIPIY | q = 0 | S = 0 | Stoichiometry = C13H11AuCl2N2S | MND = 4
Au        4.24778808110227   11.67005322299761    9.75185310615312
Cl        3.33658233050931   12.90761447381741   11.35802774141938
Cl        4.28238815562203   13.50728277922620    8.37097848593709
S         4.23343618184666    9.81932813451957   11.13206604173615
N         5.08621305879557   10.41620587798056    8.33791195337716
N         5.04551504496285    7.41742694674923   10.24475947934702
C         5.44191185440635   10.85491900281900    7.13145477763494
H         5.25677994495450   11.90451539471768    6.94437623542339
C         6.00640104491468   10.02677303843898    6.18266124457308
H         6.27608394125094   10.42966744584713    5.22027175051185
C         6.21150846148716    8.68857672955548    6.49700353089782
H         6.65128288865102    8.01339361255441    5.77889211558475
C         5.84229342765482    8.23911623825969    7.74803171018716
H         5.97150349688491    7.21687617694200    8.06553682830024
C         5.27553123290729    9.12852524116620    8.66224871485784
C         4.88873124525570    8.64361783002992    9.98379148616227
C         4.70011594327147    6.86221760156396   11.51276876224646
H         3.70839604404270    7.22489539347216   11.82715878823613
H         5.40842350410507    7.22307671237534   12.26913271743289
C         4.71696879975448    5.36055314503368   11.44356352290339
C         5.32450834816433    4.60297481588859   12.43485238959059
H         5.79939973887646    5.09612693102561   13.27127088961704
C         5.32472727670125    3.22082068571425   12.35843274704007
H         5.80129146171231    2.64062283478924   13.13503418194280
C         4.72123983444896    2.58358645995547   11.28801300717977
H         4.72421575509273    1.50517908455405   11.22834144999766
C         4.11437260129283    3.33380100575459   10.29435019686757
H         3.64049350648172    2.84127118694201    9.45763300686290
C         4.11065402377452    4.71438618418623   10.37355750138689
H         3.63954277107810    5.30599581312414    9.60202563659286

