31
CSD_code = EKIROG | q = 0 | S = 0 | Stoichiometry = C13H13Cl2NPdSe | MND = 4
Pd        0.68093529383162    6.37034739513777    4.44359082631448
Se        2.32128688289507    8.09577292876702    4.73650594332306
Cl       -0.92815046379324    4.81904417705334    4.27220980934709
Cl        0.23689911427622    7.04217660767413    2.36664655233914
N         1.13274656802606    5.82347592096125    6.40372185408254
C         2.28200668506012    6.26380293191083    6.93422403386238
C         2.52639612587841    6.18956307468730    8.29778673917490
H         3.46156940286147    6.55811780357507    8.69161119517655
C         1.57590482676805    5.63955250938881    9.14925327206977
C         0.39649669940701    5.17715053116657    8.56970869875128
H        -0.37785414368348    4.73942260680875    9.17917417595731
C         0.21447796105417    5.28678927368987    7.20580358342387
H        -0.68501690889158    4.92968670434968    6.71591209579367
C         3.27478019319612    6.87234849649474    6.00366199903906
H         3.71411907031730    6.11385363500706    5.34472768052938
H         4.06983035946835    7.39982777108387    6.53295843014040
C         1.13665322478890    8.90908490113182    6.04542835110439
C        -0.23719327647231    8.88109831050343    5.81648337509444
H        -0.64112430388823    8.47646433383423    4.88008268140130
C        -1.09421778317159    9.38972861376720    6.77828279336041
H        -2.15954071824155    9.36530996330808    6.60768624735608
C        -0.58918715641351    9.91666220278658    7.95665005852767
H        -1.26279276642090   10.30045316590325    8.70769507780921
C         0.77865336890322    9.95925658626771    8.16841010602584
H         1.17430023775573   10.38207245549945    9.07987217125838
C         1.64657443141199    9.46387362457875    7.21022552259058
H         2.71502852590904    9.50517868861185    7.36794902452987
C         1.80157583377092    5.54712771332450   10.62103184492736
H         2.75525326409497    5.98590801550497   10.90127365833859
H         1.78921452899099    4.50443907519954   10.93535524385299
H         1.00447492228144    6.06100998202067   11.15567695446788

