71
CSD_code = EKIVEB | q = 0 | S = 0 | Stoichiometry = C19H38B10ClN2Rh | MND = 6
Rh        0.49800599442236    8.33001215195669   10.24757748250176
Cl        0.46076407883325   10.49769454022253    9.47906826611076
C         3.41669142365112   11.90854595914051   14.34995556146753
H         2.68553337576976   12.07860589228326   15.13191584290683
C        -3.14603109069391   10.40553445380420    9.52809159427581
H        -3.54845345990489   11.18028839867129   10.17735550019802
H        -3.77694466200842   10.32804618240031    8.64719331307796
H        -2.14320841050531   10.69842450962422    9.22254855020151
C         1.37742808630440    7.65146760482795    8.40553449736307
H         1.14944509677499    8.40510571114484    7.65095231451467
C         1.10666144651382    6.69394535016931   11.45552162438607
H         0.75320829531208    6.78911968099536   12.48297046768530
B         5.39077478669586   10.28460070616839   13.32477835899190
H         6.08469842062818    9.33946506165203   13.42790027903793
N        -0.52102576454769    9.58829193058448   12.71729628008538
N        -2.21651689912261    9.25006697199942   11.42828555667614
C        -2.52955157247391    7.99669139921831    9.31339687376233
H        -3.12830003716155    7.97812107280096    8.40659619731681
H        -2.56792641431179    7.01323853794973    9.77441972620896
H        -1.49329099029901    8.23363086231018    9.03947591843458
C         0.17986224923978    6.23872228949370   10.51595835816523
H        -0.82685977116049    6.05043670464204   10.88355400469377
C         1.34671090205850   11.16156927352161   12.83136455217667
H         1.07978461008032   11.33770089385493   11.78377907596500
H         0.80699345457385   11.89977306469734   13.43471419305111
B         5.00795380196017   13.00504422606897   12.38069482071062
H         5.43676972627632   13.95183269464756   11.83066543463563
C         2.84480506449287   11.34921838576687   12.97144648144700
C        -4.47716947560990    8.61961547186780   10.72118134773304
H        -5.03248344590865    9.43300690479179   11.18020089638715
H        -4.40206133667888    7.79885205574521   11.43175140317346
H        -5.04739250869468    8.27730798481137    9.86191210906615
C         2.40376626757690    7.91264283346302    9.28877486302263
H         2.91154133488133    8.87236318521214    9.20377232521096
C         2.59693154670082    6.45304179278960   11.36126432497128
H         2.80020232113136    5.39791406188303   11.57849271191351
H         3.09312631864356    7.03865944496888   12.13919110200426
B         6.01253212483117   11.96130974354537   13.43054714381659
H         7.15260696024098   12.18525046080902   13.61654574947878
C        -1.60427689720717   10.15083563268526   13.33599453089487
H        -1.53826265447769   10.63977502904212   14.28632913330108
C        -0.88426289039009    9.02851173098306   11.54132653485316
B         4.73431320594996   12.97147780955356   14.13915224531208
H         4.84528961026970   13.86125357740229   14.90101972858926
B         4.97527650300801   11.32044291351489   14.71690007974731
H         5.23908890606125   11.14129021580422   15.84967552667193
C        -3.08213796988945    9.05932936029651   10.25790586127810
C         0.83325464357005    9.75526766897848   13.18089500163739
H         1.45671992140769    9.01766464291784   12.66637994042557
H         0.85568050973295    9.57466035340041   14.26031619610638
C        -2.66405066695519    9.94010167046941   12.52902884728243
H        -3.68342340526282   10.23054057433457   12.66417171545357
C         0.86311016928436    6.27137987706827    8.06583150717572
H         1.59356067395685    5.76526368035275    7.42504385735114
H        -0.05449349304903    6.38148293351845    7.48268476578527
C         3.19337611899728    6.83062678599450    9.99123085213786
H         4.21661349070085    7.18046818237455   10.13931163800091
H         3.23920367715284    5.95303773259756    9.34407966953998
B         3.76707339781897   10.27999979631860   13.97705468615729
H         3.18196503995155    9.45650095849951   14.57740987408592
C         0.56745517892148    5.41038983151206    9.30887679672568
H        -0.24640962081323    4.72153953236263    9.07255764111540
H         1.43781999036328    4.80306269960393    9.56328091947563
B         3.37294489523511   12.99152639372543   13.02256016392529
H         2.52512866109586   13.80551081515783   13.03878647818020
B         3.75820830592657   11.96780008364693   11.65067106467392
H         3.18837670269802   12.14059254145863   10.64046446207444
B         5.39619081828865   11.33250597629238   11.87750770600020
H         6.10135166707306   11.10706937180296   10.96295182100333
B         3.97832603018606   10.31636874388873   12.23208779258828
H         3.56500763186933    9.42746443391382   11.58776785961218

