42
CSD_code = EKOCAJ | q = 1 | S = 0 | Stoichiometry = C12H22N5O2Zn(1+) | MND = 5
Zn       -3.83815277996670   10.93891972719237   19.39402899681306
O        -5.08758448058805    9.49158689081048   18.93267484885575
O        -4.12822333717706   10.60508043672607   17.33289847081742
N        -2.42227739631240   12.48622814147667   20.16240990341721
N        -1.93370917304289    9.98237699735132   18.98170176224281
H        -1.83715801311708    8.99862156088891   19.21951201046999
H        -1.94743068039672   10.02603109402656   17.96318822627433
N        -4.12563291607736   10.69862408762549   21.50157657150816
H        -5.10175976045953   10.50764813278895   21.70730685418997
H        -3.60740567405702    9.88617311477479   21.82559993972137
N        -4.96795044037111   12.72630075222956   18.97771350613984
H        -5.52336150881761   12.52750893193375   18.14908511126345
H        -5.60158871133319   13.12880466002824   19.66568919905000
N        -7.17636660220337    7.10874379407212   16.27295581249418
C        -1.14737704286096   12.23723061803124   19.48615325393508
H        -0.33370203897183   12.80865954937670   19.94959572431802
H        -1.25735442076818   12.56220565905211   18.45063304174219
C        -0.79171679705852   10.74934355569264   19.48392555729504
H         0.10416499039614   10.60548289985453   18.87063147999351
H        -0.55808907612185   10.40635650727904   20.49374303981905
C        -2.31823073975535   12.32191880971531   21.61412811462645
H        -1.96990440095235   13.24196534872546   22.09625558130405
H        -1.59433953583184   11.53720450203001   21.82841179692695
C        -3.66383392006806   11.89724582937502   22.20256998838418
H        -3.54806590531964   11.73221515437110   23.27892874815991
H        -4.40508661113270   12.68459308568206   22.05785845828122
C        -2.96029862025655   13.80551474571903   19.81244524685673
H        -2.15632539264504   14.51018587263532   19.57737204730215
H        -3.50958074064173   14.19936434507772   20.66923253819929
C        -3.92540792392800   13.69944238512014   18.63524613317833
H        -4.33758904061265   14.68920841162952   18.41226895336779
H        -3.40539983070075   13.32745017073776   17.75101598397039
C        -4.91280519702107    9.69537648654711   17.69894548026817
C        -6.51493612180879    7.87268292888471   17.11672804514963
H        -6.68767735867632    7.69862415738168   18.16985377628358
C        -5.62704899480631    8.86870206568206   16.70669634693175
C        -5.43573795051246    9.05940246991714   15.33864760067614
H        -4.75432687512738    9.82444775655690   14.99634272591396
C        -6.13170686904980    8.25478935089072   14.45541230807007
H        -6.01426286879110    8.36691773631028   13.38931994267228
C        -6.99012284223770    7.29384295164203   14.97639985252503
H        -7.55693640079137    6.63997832416017   14.32759702057394

