69
CSD_code = EKOKUL | q = 1 | S = 0 | Stoichiometry = C25H37IN4ORh(1+) | MND = 6
Rh        6.14640759337298    2.70819709651668    4.28436332614298
I         7.90688905256889    0.83961294705754    3.67715778730906
C         7.67937666485301    3.82576477199811    4.85260441029736
N         8.40048805592782    3.75767017545695    5.97872375033672
C         9.31958498936851    4.77455031302066    6.02245761889473
H        10.00318114228862    4.89154839005251    6.83789666815613
C         9.16516738826619    5.51245659473385    4.90226243626272
H         9.70297590170906    6.36792648194491    4.55200290703516
N         8.16079730635333    4.91018729808818    4.17222875134560
C         7.65148397983303    5.28858266176779    2.93529442532991
C         7.48081617478529    6.61690806483909    2.59920624658083
H         7.78960639028513    7.41380922646968    3.25761627761239
N         6.91345345067631    6.96822928726215    1.42529051247215
C         6.49072776066849    6.02044547790277    0.56356328150948
H         6.02535882949455    6.35610447953440   -0.35002806944712
C         6.68327829718495    4.68113258860994    0.81478240010289
C         7.25713433728641    4.28362631072967    2.03141425913144
H         7.51949059878003    3.24814431146812    2.19436960383515
C         6.06316824522983    3.65957038266616   -0.12356154150507
O         4.84393329065728    3.65853634068482   -0.15476269233641
N         6.87208441918813    2.83824423701175   -0.79172058534086
C         8.32057969076503    3.02065866057456   -0.82717068021158
H         8.54762488953346    3.86266633050284   -0.16385475292352
C         6.28729379593069    1.75335153255040   -1.59675186100134
H         7.12792163251502    1.22060725178651   -2.04380132299526
C         5.52361687315051    0.78190541299862   -0.70027183258557
H         6.16227368439892    0.42589714517458    0.10532104553835
H         5.20079407017660   -0.07396195989238   -1.28560193274913
H         4.64508929536040    1.26412842980627   -0.28140652239274
C         5.40351143254881    2.29789457773574   -2.71631070430982
H         4.53430701855668    2.80167703261880   -2.30463749781556
H         5.06505448946500    1.47439510749496   -3.33846642881857
H         5.95624598147434    2.99738381689730   -3.33908743571695
C         8.26906695008341    2.72964244418478    6.97707884152815
H         7.38311652096175    2.12940880881906    6.75123729878819
H         8.16961444850379    3.17277727263956    7.96787791949735
H         9.14442580663206    2.07768543936836    6.96209579403402
C         9.06289168597213    1.78996911809858   -0.30982207238733
H         8.67834455410116    1.47523687773361    0.65620185841809
H        10.11682795675730    2.02605849881602   -0.19535354847396
H         8.98157503775428    0.95354103166072   -0.99697730977984
C         8.78424854151029    3.40470085320871   -2.23366075585600
H         8.63157274613826    2.59225389629781   -2.93771161444181
H         9.84523566746488    3.63739774916521   -2.21302433881792
H         8.24410642600968    4.27938728443351   -2.58977673041875
C         6.79356974146715    8.36322611124875    1.06921665826112
H         6.76478197080037    8.98228040790587    1.96358491952864
H         5.88138009958589    8.52635453468434    0.49772977695537
H         7.64509034261644    8.67192809334039    0.45817207930134
C         4.88927853651424    3.72246061546585    5.69421236792546
H         5.49500519648346    4.28752113824279    6.40621391008444
C         4.68101841944320    4.29437566192960    4.44089424969703
H         5.16766392873172    5.25507867818741    4.26056625911040
C         3.43542530137747    4.06906617865002    3.61204370432034
H         2.58902685757868    3.94081512496634    4.28885248285576
H         3.23922504159393    4.96520370634290    3.02053478103922
C         3.54995072661223    2.86835423272637    2.65214074019844
H         2.56416410328768    2.41593309315788    2.50569349579759
H         3.88203246631427    3.22172057501606    1.67490082577328
C         4.49888522395083    1.79705163773208    3.12806018360836
H         4.97606957873834    1.23791192100105    2.32205877559038
C         4.46933928219979    1.23936968164498    4.38120630699607
H         4.95232014886096    0.27527207597744    4.53617058641370
C         3.45731620753462    1.62014864634809    5.43455909013606
H         3.22581399162823    0.74012930625592    6.03665374895955
H         2.53348085107363    1.93008634452998    4.94555355183698
C         3.97357516698506    2.73013476454836    6.36811534788988
H         3.12943647443811    3.27404223408554    6.80502256102744
H         4.51910727764309    2.27282518552307    7.19915640686811

