56
CSD_code = EKOKIZ | q = 0 | S = 0 | Stoichiometry = C20H30CoF2NP2 | MND = 6
C         3.23983315473616    9.57069400604958    6.15712002955501
H         3.11065513585801   10.15996910563715    7.05315107783648
C         3.82342560139266   10.14333437602832    5.04421433078508
H         4.17112266152674   11.16199902482553    5.07193799700943
C         3.99835121160408    9.40003377601485    3.87818583464806
C         4.11550948827469    9.69704534915839    1.58849107138930
H         3.22783807718158    9.07687057448276    1.46117294424732
C         4.77043966095238   10.24951331013434    0.45242706271967
C         4.36394184337791   10.01101118590520   -0.86359277933232
C         5.88371232203647   11.07256726297190    0.72785620012779
C         6.54309248155455   11.61766950992557   -0.37634789879098
H         7.40018473437999   12.25664278859129   -0.22689435768599
C         6.13152706577718   11.36553082757869   -1.67123774716442
H         6.66796934236793   11.80253532829610   -2.50223328339108
C         5.02975889432294   10.55575858241058   -1.93354275419280
H         4.69980641416548   10.35524122753593   -2.94061525921530
C         3.58643474948832    8.06465795477687    3.86507231298687
H         3.74524258437448    7.46061111326746    2.98255412705779
C         3.00834354052311    7.49789725197588    4.98440185746376
H         2.70188511963852    6.46194502578032    4.95928626155751
C         2.82562025817511    8.24908793982012    6.13324613976100
H         2.37303305433590    7.80327058265458    7.00657287280227
C         5.04151488904015   14.07905191248439    4.01759319666233
H         4.27111947533327   14.84925056310143    4.03604955892831
H         6.02688988793679   14.53416544904874    3.94613562389179
H         5.01057198568703   13.48860814196445    4.92984708574249
C         4.86448812155893   14.15567139815007    1.19723205438885
H         4.17704840428631   14.97643332079496    1.39797004811617
H         4.57036944033627   13.64882871701757    0.28073599959893
H         5.86732001340456   14.55240437084361    1.06681842072134
C         3.00057739206045   12.68344744600585    2.62313676054665
H         2.71935195677203   12.08945422522463    3.48930889761135
H         2.70461194095042   12.14993095226769    1.72096406309189
H         2.48444275822797   13.64255885854369    2.65750913070713
C         8.55933173959376    9.17024511408007    1.06049017354570
H         9.11638353923795   10.05157811564284    0.75405550738685
H         7.88375043374338    8.89289000757804    0.25427850659657
H         9.25245023404552    8.35299516897042    1.25478159879705
C         8.88706427976315    9.63898515428829    3.84437564265823
H         9.46586340545037    8.71645182814594    3.87352952637339
H         8.39630023849065    9.81047517590100    4.79939958483713
H         9.53837848603374   10.48276810288032    3.63339733915005
C         6.92135013950686    7.86439059466058    2.92213500231025
H         7.73488932276451    7.14020891058353    2.95720972556379
H         6.21723697756063    7.57771464934717    2.14309204309601
H         6.40642102483849    7.88313371228708    3.88068574423430
C         7.70074761384640   12.43206961237693    2.44539311597979
H         8.53950196403755   12.00594069125623    1.89188415681772
H         8.04594475818286   12.64706889312457    3.45550338206913
H         7.46380251821270   13.38395812952738    1.96894766138937
Co        6.15316218098722   11.20667815400871    2.59042494344110
F         3.28318251964049    9.21596064204380   -1.08587721186838
F         6.35356640486652   11.24769679302383    4.42304699004590
N         4.58812514650381    9.98098506454995    2.75329444304991
P         4.81982876608387   12.95830748244085    2.58947032142152
P         7.58258464498532    9.53960654403228    2.57065492290933

