87
CSD_code = EKORAX | q = 0 | S = 0 | Stoichiometry = C27H51Cl2O4P2Re | MND = 6
Re        3.95235837672963    9.03047588110604   11.56003870943240
P         2.01725113890235    7.71905381312102   12.39437530094053
Cl        5.66359218069252   10.42991633809626   10.70084017799277
P         4.03425919439189    8.05486213088564    9.28867784059453
Cl        3.99598854827987   10.21260980708897   13.61908017588348
O         4.96733766143127    7.82184626718600   12.09329697389442
O         3.52284295324420    6.51127664099930    9.22201534326386
O         1.37652396266848    6.72535883372690   11.27273362404719
C         1.96708038665459    5.52939208353259   10.79522293551451
H         1.35851286424040    5.23945725736554    9.93242825474866
H         1.90039500443562    4.74433429343046   11.55627971338705
C         3.42359963015737    5.67457579032703   10.35961184054540
H         4.02407862875173    6.07172102175824   11.18861749971255
H         3.80593408396593    4.68994787363854   10.07162638973534
C         1.49532975431916    8.76760426993451    8.48254963842433
H         1.16894661161881    7.74911824480630    8.70279184915426
H         1.44819076121700    9.33967254429933    9.41216533964251
C         0.61055802759069    9.56351937514702   13.94321017075475
H         1.59361831983134   10.03413421697799   14.03104101281533
H         0.48282938608375    8.88748813230717   14.79082712704112
C         2.93851461111217    8.75164020741673    7.98109408113160
H         3.00779075588131    8.08039874703339    7.11629633748242
C         0.57044920375626    9.40076703968956    7.44736372281106
H        -0.45179578204536    9.42436566988287    7.83162099054337
H         0.57180643706502    8.79298565644752    6.53893091864893
C         0.52090129692190    8.77750789576874   12.63622240267529
H         0.60256129012811    9.49461627336750   11.80696799698739
C         5.73429135901221    7.94705687206904    8.56256282262911
H         6.11207096921997    8.97279750593681    8.51816862866637
C         3.40664917716427   10.15630420466022    7.61177374154460
H         3.43262419047271   10.77090827316203    8.51363024582295
H         4.42241411330826   10.12401943545975    7.21256877290950
C         3.62299972431151    6.16652555229354   15.93060693550016
H         4.21101057714779    6.63919058510141   16.71788013765548
H         4.24923610147550    5.40736871024126   15.45619922565581
C         1.11862112668432    5.91671594721752   14.41272530981853
H         0.51543197457086    6.67145508245920   14.91841123301913
H         0.51042066641491    5.45937442465585   13.62767434682340
C         6.61382136866524    7.15137263305232    9.52834519928706
H         6.22482666335500    6.13264586474564    9.62010228413341
H         6.58591059829076    7.61704758973649   10.51795210452648
C         2.36389981954570    6.56703556379622   13.81507217729019
H         2.97750355572614    5.78004460521305   13.35044850192552
C         3.22387264231628    7.21505479845948   14.89552946330610
H         4.11698938459719    7.64250492587431   14.43495589373758
H         2.68252626245939    8.02673525026969   15.38055604863863
C         2.46871803469671   10.78542299230082    6.58480384278205
H         2.50231837871476   10.20433025033241    5.65934696432373
H         2.80287365621709   11.79892442506094    6.35554309837707
C         5.75771963027240    7.30965098539028    7.17561791422732
H         5.15858197985216    7.88955777263261    6.47123333202055
H         5.33653582863010    6.30282800105426    7.23268960151275
C         1.03665226437301   10.81357125460002    7.10924078648098
H         0.37421585823156   11.25695572960932    6.36291934748522
H         0.99336198395389   11.43566687417499    8.00603834790360
C        -1.93608138287595    9.14466797994165   12.54639060424337
H        -1.82561228279393    9.81577875857732   11.69135927365049
H        -2.91167780193014    8.66036685454404   12.46581435224769
C        -1.86310528300446    9.95560870264231   13.83783377918125
H        -2.64665900067520   10.71592586816038   13.84141502173209
H        -2.03784130130521    9.29411513143268   14.68963183601677
C         2.38791891752146    5.50089757853369   16.53174454233554
H         2.68865969485022    4.74095606416059   17.25544689126200
H         1.79475649999306    6.24978859498114   17.06085272554605
O         2.80172908864597   10.28720214163589   11.01177607820751
C        -0.49424908786381   10.61614069462014   13.98292207254090
H        -0.44306193412063   11.16697491202313   14.92347879021309
H        -0.34714136779214   11.33122959030495   13.17048471706404
C         8.04755872955224    7.09772837532066    9.01315423841544
H         8.44795780682196    8.11147327834582    8.96224027763063
H         8.66728016889948    6.52570400374438    9.70569974187424
C        -0.83412657497919    8.08596082528977   12.50720595414844
H        -0.98488572131086    7.38569296609558   13.32844629424812
H        -0.88644936705101    7.52927542952600   11.57100635058451
C         7.19598114365189    7.23919911772658    6.66334990390549
H         7.21055329729267    6.76873167613844    5.67750095304662
H         7.58631797843063    8.25363500610848    6.55724568510407
C         1.53630920232909    4.86305407806708   15.43748746198673
H         0.64747417209291    4.40248941787001   15.87439131676923
H         2.11105375516170    4.07675696086837   14.94191843048960
C         8.08381798826100    6.45979603131794    7.62777932903324
H         9.10838278563097    6.43859196761721    7.25148679344720
H         7.73006329842998    5.42788085139706    7.69333429242207
C         2.51016508848240   11.62155632658832   11.07598143271005
H         2.44626069236758   11.92461095543897   12.13272246249344
H         1.56252371857963   11.85433450927934   10.56889089229817
H         3.32467390097874   12.19586293680410   10.60818482937165

