66
CSD_code = EKORIF | q = 0 | S = 0 | Stoichiometry = C28H29Cl2O4P2Re | MND = 6
Re        5.29462614460433    9.80545811989137    5.29934544224965
Cl        4.96646080699382   10.87669704757460    3.17516176644848
P         6.20949510396743    8.03239663808781    3.94363526504889
P         5.15797090762736    8.74010885703388    7.47339665701647
Cl        4.28222019288932   11.33789886480132    6.88813953835316
O         6.80949071186957   10.44784795131019    5.53687056411080
O         3.68676240599892    9.08765098522312    5.04362894181727
C         2.45613226597010    9.03541298495053    4.45039992953246
H         2.10828240605158    7.98818609787395    4.40790159012932
H         2.57058532272768    9.40655398343379    3.41499465199452
C         1.43538680529435    9.90535314916915    5.18793003270480
H         0.50100968504097    9.92071426477059    4.63395146034644
H         1.82234357290200   10.91864094714380    5.27211077284621
H         1.25793360263976    9.51889016616460    6.18951882892776
O         6.87730740298066    6.89730102641883    4.89281794882266
O         5.60050717358641    7.15866925819597    7.48978034791667
C         6.92002312457775    6.69265150073321    7.30479930540089
H         6.82881529626042    5.60488701910528    7.22089134903081
H         7.53350102138414    6.93995364860912    8.17984297898640
C         7.60959748941421    7.25105411244859    6.05935452011842
H         7.70173018350977    8.34166035692185    6.15144909907741
H         8.60869754709952    6.81329514821949    5.97484340350895
C         3.47300975304263    8.44177064242241    8.04890357742629
C         2.86483116513287    9.31038563345213    8.94694824249113
H         3.41205483441679   10.16337055866916    9.31914934369896
C         1.55473385904992    9.08811780024513    9.33196086037186
H         1.07974629925412    9.76308281030790   10.02802366943530
C         0.84950030101458    8.01098754404291    8.81890213498282
H        -0.17573879574886    7.84547437163867    9.11603005351381
C         1.45446352921989    7.15070537486608    7.91636623448245
H         0.90076571969316    6.31712986499731    7.50869491264230
C         2.76462730813983    7.36489804527644    7.52766858115594
H         3.24156863354464    6.70444126356492    6.81797967714138
C         6.09177877718019    9.43261276508837    8.86963498612865
C         5.97675394535457    8.83016034698225   10.11808172132425
H         5.31372188159834    7.98453414843889   10.24431639360548
C         6.70598866636988    9.32333124100852   11.18423734008424
H         6.61532311143019    8.86367152483710   12.15758909821116
C         7.54786423409351   10.41016128601272   11.00381817198485
H         8.11126099130506   10.79624162930166   11.84049649814687
C         7.66832584274346   11.00178757127901    9.75661025265693
H         8.32527457785820   11.84716555226673    9.61973793622373
C         6.94366886035279   10.51260331212949    8.68373607355695
H         7.02082758049843   10.96658877496862    7.70368066715769
C         4.98422291983614    7.05336604265825    3.06744938406968
C         4.44943975714796    7.59833025260358    1.90294164720176
H         4.82678922541541    8.54566723538684    1.54191940409605
C         3.42929803125369    6.93610570906710    1.24560090972682
H         3.01034695242018    7.35464532675780    0.34292179314340
C         2.93906741708121    5.74080378803965    1.74988716308829
H         2.14039473751776    5.22623207513550    1.23610487576250
C         3.46469259334310    5.20723627020539    2.91585946336152
H         3.07464205697923    4.27950761852922    3.30914914996526
C         4.48345086444611    5.86451252342113    3.58303581018566
H         4.89711669752357    5.46170993337610    4.49562851269980
C         7.50693040828844    8.41508102640221    2.72985333660509
C         8.11161593340856    9.66482281647700    2.72971118472445
H         7.78320605432493   10.41461000993077    3.43758329498279
C         9.11264880695085    9.93698836624060    1.81305379600288
H         9.58001689494392   10.90977796402746    1.80211621924051
C         9.50860796710054    8.96554693832901    0.90836292795949
H        10.28625222787442    9.18174737875943    0.19064113572817
C         8.90961473115713    7.71485462156640    0.91723027560842
H         9.22180988174007    6.95965696125134    0.21081014654942
C         7.90668932505608    7.43579797663819    1.82670352074478
H         7.42801626732687    6.46609497526898    1.84260522776106

