74
CSD_code = EKOWOS | q = 0 | S = 0 | Stoichiometry = C39H30Cl2P2Pt | MND = 4
Pt        3.01969486055327    9.21006628624381    7.13269208151357
Cl        0.70826675213365    9.29120617665774    7.01067294025140
Cl        3.47011164685601    9.37266691660911    4.86541670429964
P         2.54873468314211    9.02228807025110    9.33830666767710
P         5.28266219223129    9.14477735377803    7.20169593667474
C         4.06454719848530    9.59126584199928   10.25527971994404
C         5.10129593353762    8.94797632227778    9.77985481722270
C         5.75414751439638    8.34732424611746    8.81613739271258
C         4.06420779666224   10.75436112480251   11.14388355573039
C         4.97032956157023   11.78952774996188   10.92056988228901
H         5.66214010024450   11.71570127500699   10.09408268980572
C         4.96987786490464   12.90335793254064   11.73799750830613
H         5.67025686108717   13.70404876821513   11.55105699557502
C         4.07276525642033   12.99578675003617   12.79002100172530
H         4.07096076405301   13.86908142412666   13.42501857222202
C         3.18071647901043   11.96363943518852   13.02715423844204
H         2.48518559184426   12.02691335830089   13.85089991102041
C         3.17388745925706   10.84934985045140   12.20894238871251
H         2.48068323914594   10.04356345350523   12.40378112098085
C         6.51481543765487    7.09983310568955    8.89812684459656
C         7.73564839003669    6.95143035158657    8.24718118251981
H         8.14902652603025    7.77590067376425    7.68420703857196
C         8.42954165056405    5.75845717880967    8.32738007399607
H         9.37593011767020    5.65483493169884    7.81753462083899
C         7.91288850224772    4.69999570301679    9.05536592161209
H         8.45231546016602    3.76624708986700    9.11000594987557
C         6.70381676821157    4.84414518802693    9.71680659483916
H         6.29826567334572    4.02337237082977   10.28993006381147
C         6.00907164490263    6.03592732138640    9.64339707333579
H         5.06274087765085    6.15100155002573   10.15131770554307
C         1.17314455445679    9.93422567805401   10.06735812176609
C         1.18934783239895   11.31642200958665    9.89454376830363
H         2.01178107158427   11.77202878217262    9.35609401622813
C         0.15613980329444   12.08381860502864   10.39261150487657
H         0.16541835532586   13.15536425128426   10.25924993213196
C        -0.89904045160935   11.47437449490538   11.05490893336611
H        -1.71043939647589   12.07379809041076   11.44049481940437
C        -0.92505395562638   10.09835488619955   11.20825339431660
H        -1.75792182339462    9.62609623285663   11.70845826038228
C         0.10800306113792    9.32123371668007   10.71369921263072
H         0.08255509078762    8.24547619480099   10.81742863648997
C         2.38115509804237    7.28189881711536    9.80028442127858
C         2.42119440193080    6.85883596213384   11.12590188209196
H         2.50808611398269    7.58690854719194   11.92103237866855
C         2.36512638039406    5.50783512230648   11.41535721706363
H         2.39543639632412    5.17601853200260   12.44300256091746
C         2.27845992225860    4.57900139914646   10.38892507732683
H         2.23972586897235    3.52509853487334   10.62158952095874
C         2.24638440308168    4.99765715503772    9.06831842799989
H         2.18358520495193    4.27146481287675    8.27180846741481
C         2.29906055568278    6.34782541265722    8.77292384286586
H         2.27170153454783    6.69983220581593    7.74396047900559
C         5.97132509840010   10.81314889294002    7.30965014891380
C         5.11266113920276   11.88220118476661    7.07604287739900
H         4.08610922642897   11.67716024276950    6.78185638719837
C         5.57163575009916   13.17984687471635    7.21237857693143
H         4.90659144284708   14.01073514002208    7.03057969582320
C         6.88580066845504   13.41103335878889    7.58643996226234
H         7.24556191615951   14.42356619221178    7.69481184996360
C         7.74189759782053   12.34684571467885    7.82800231646927
H         8.76362240369433   12.53225508935680    8.12593411899745
C         7.28834209595097   11.04743187540790    7.69500885753864
H         7.94611215563824   10.21365756504055    7.89973103691902
C         6.19734763516441    8.23739099579543    5.93832551855192
C         5.86080086327812    6.89482016091388    5.78138249978874
H         5.09868957574218    6.46318198425008    6.41941365368404
C         6.48541249023573    6.13817630252043    4.81094432546454
H         6.22500514333495    5.09771822869701    4.68535307511882
C         7.44009632781705    6.72027454165153    3.99046214135752
H         7.92551103651740    6.13014840008847    3.22726992792223
C         7.76102352413006    8.05963397554071    4.13465855354497
H         8.49264876504972    8.51313905767329    3.48201252019733
C         7.14023494349197    8.82560115870799    5.10604251877330
H         7.37628737446318    9.87541581954369    5.21037736705014

