84
CSD_code = EKOXAD | q = 0 | S = 0 | Stoichiometry = C40H40P2PtSi | MND = 4
Pt        3.08470594000828    1.65633706711863    3.38796857508424
P         3.19095489526356    3.21322410239886    1.65683550204203
P         5.20249084670370    2.34253005945515    4.10885915079515
Si        6.25491208595715    3.93830134969026    1.62082952241493
C         6.70364676248993    5.71730220507234    1.13044263766193
C         7.06245695548301    5.97147487467840   -0.19036636491308
H         7.08041923606878    5.15200008467062   -0.89499478802123
C         7.40078685488916    7.24378343148077   -0.61138709591502
H         7.67559868585470    7.41761662891204   -1.64179411830494
C         7.38781533593392    8.29589052446310    0.28949617633481
H         7.64947283087431    9.29233880306002   -0.03540761389207
C         7.04102126265218    8.06197998299731    1.60875366384106
H         7.03301714892330    8.87709625341321    2.31833307298629
C         6.70493790571420    6.78481537280397    2.02156472694786
H         6.43678982701687    6.61991761667698    3.05477975270014
C         7.72816164390771    2.84687482363901    1.12638363167621
C         7.60848788672950    1.64794463865496    0.43270583246421
H         6.63143320220389    1.28096230538858    0.15564511702957
C         8.72272281295323    0.90008373525395    0.09779928959690
H         8.60458311225040   -0.02869601932254   -0.44119696888572
C         9.98551832300878    1.33933838201512    0.45316434903910
H        10.85685991453591    0.75598832341060    0.19367096988523
C        10.12614476866963    2.53277394283064    1.14158142123865
H        11.10934277975367    2.88438555358842    1.41970428235397
C         9.00833698468265    3.27571592855410    1.46916558962379
H         9.12418955913361    4.21247696974359    1.99589995239386
C         4.69512657685837    3.45723539534967    0.61950569658452
H         4.48189907466067    4.20557291105067   -0.14612339976851
H         4.85402150416862    2.50838915224207    0.10536554988982
C         6.04602817140837    3.87309953234159    3.51798394000295
H         7.01844087977130    3.94818715668232    4.00843732437277
H         5.43533563811325    4.71291825752046    3.85187576978745
C         1.90970488931171    3.33241480761876    0.36396400217765
C         1.90773487468984    2.35925559374002   -0.63178680640738
H         2.67065498074552    1.59188960749044   -0.62429044922521
C         0.93416491363091    2.36075397676236   -1.61122524477136
H         0.94025235250935    1.60292447112167   -2.38129146362873
C        -0.05681664183499    3.32944749580536   -1.59905919839737
H        -0.82098548529613    3.33067249148590   -2.36233655335107
C        -0.07296634526840    4.28735562898082   -0.59984250622311
H        -0.85174656120552    5.03603587172365   -0.58191348919661
C         0.90182909257382    4.28835200614459    0.38247140611922
H         0.87745250917705    5.03170912354087    1.16704546678710
C         3.02782845555917    4.81323106234282    2.50948332618412
C         3.39548562687776    6.03736927393574    1.96214278712446
H         3.77144170544997    6.09389480212348    0.95108084197562
C         3.28094008667413    7.19272200910917    2.71478664807517
H         3.57635038182944    8.14006115454601    2.28742079570231
C         2.79350285291076    7.13726049438320    4.01100940129166
H         2.70999835365263    8.04250616904938    4.59478730708715
C         2.41005334456442    5.92213399114981    4.55696603272993
H         2.02418242917330    5.87802581538363    5.56533148230047
C         2.52758540731624    4.76500095359237    3.80860036662965
H         2.23718276309100    3.79607338603564    4.22305997541083
C         6.36831179125450    1.05713289985746    3.56866159859748
C         5.83530239293778   -0.00086256187342    2.84099509792061
H         4.75912927171275   -0.01332237537156    2.64971186627326
C         6.65355350822224   -1.02155431818872    2.39210514409734
H         6.23507794584300   -1.84541217619871    1.83248852810805
C         8.01014024140295   -0.98717032084813    2.66762619380199
H         8.65272317065997   -1.78444342341347    2.32358796102691
C         8.54745706780804    0.06690095515014    3.38989599436875
H         9.60625994919819    0.09051400239103    3.60317096736023
C         7.73252289919568    1.08820638172137    3.83904994011773
H         8.15387747686539    1.90301591840839    4.41160173335391
C         5.53978691679170    2.48024199597173    5.89567848495708
C         5.08663019343182    3.61690628527418    6.56048939267592
H         4.60136336041035    4.40553078140755    6.00024525259543
C         5.23882899415956    3.73676412849774    7.92828529725742
H         4.88700614991252    4.62419156836714    8.43477913046721
C         5.83212685423802    2.71472936624842    8.65182695846854
H         5.94823711866629    2.80563433686189    9.72180576842703
C         6.26282632485559    1.57104883360762    8.00144135607385
H         6.71310172321245    0.76618574883361    8.56439177154255
C         6.11306061128231    1.44906902101804    6.63145997816650
H         6.44215137577244    0.54891699080560    6.13102511255961
C         1.28037517693500    0.91551242088845    2.71470399536120
H         0.71948889556788    0.28566256270156    3.40641682869160
H         1.45833092610415    0.32344766095229    1.80672882490696
H         0.61932733909681    1.74263766717451    2.42295048690028
C         2.87714737587308    0.45469143804593    5.05588515306887
H         3.84528765028448    0.21426839433049    5.51228213399654
H         2.36605414431575   -0.49416721737841    4.88042428594599
H         2.29822376125509    0.99877350287773    5.81409948749818

