109
CSD_code = EKUGUN | q = 0 | S = 0 | Stoichiometry = C40H62F5NiP | MND = 5
Ni        2.60836144922379   11.92121467071554    1.55476975030986
P         2.81750965963534   12.77764390396624    3.62440764701531
F         4.98871751077376   10.46253932144445    1.21494828856600
F         5.82067410950642    7.89420155713261    1.65169375714999
F         4.04938152576028    6.05221298326243    2.65408741045739
F         1.47790524033827    6.81516722751445    3.19082603051799
F         0.68489159613352    9.34847958609991    2.75279593018824
C         2.82069767415795   10.00938526196281    1.97413710813803
C         4.11256607697334    9.54833204074704    1.71439005519765
C         4.55405642107313    8.25290466733127    1.92534007477225
C         3.65876620975230    7.31689366604224    2.43063290870912
C         2.35491742346320    7.70966151383163    2.70160985832809
C         1.96791144892010    9.02493346252807    2.46940887697935
C         2.33340769879016   13.45068084008591    0.29289781649838
C         3.30454019064426   12.59257204241298   -0.27923457784510
C         2.37739866467067   11.51508501533890   -0.34779846217820
C         1.20939860275052   12.50667094046742   -0.19461162793365
H         0.84048999281997   12.82229736823027   -1.17602310335128
C         2.28242105968384   14.94449046074702    0.40526744145722
H         3.29850891186716   15.33093294087782    0.51511436730735
H         1.70548386142885   15.24954594375921    1.28103482383053
C         1.63144870693264   15.57452169010269   -0.83417940650178
H         2.13248431525942   15.21326026674159   -1.73477153524000
H         0.58553120426564   15.26669838531716   -0.88803895970664
C         1.70907482793331   17.09485442051882   -0.78084276143400
H         1.23627658740615   17.53140302851212   -1.65745921924855
H         2.74535346718541   17.42587236883094   -0.75131939084288
H         1.20332287713998   17.47317881113182    0.10523845004704
C         4.70563015968524   12.74078528749045   -0.77527836052567
H         5.08656764960003   11.75683714811944   -1.05428723187568
H         5.36447966598905   13.13862284439567   -0.00050790885324
C         4.75750506662235   13.66993575137566   -1.99373916776758
H         4.04546081505845   13.32183905488315   -2.74651897919984
H         4.46271694245985   14.67798529370812   -1.69674566922216
C         6.15582939275148   13.70859097500819   -2.59567372881491
H         6.18408397299018   14.37569279638271   -3.45431844252276
H         6.45913646817470   12.71618118342638   -2.92151844615840
H         6.87679097167604   14.06147867581949   -1.86143448501571
C         2.43863132802986   10.24741703424934   -1.14134694817233
H         1.76551289458874    9.49478696238211   -0.72522664619116
H         3.45415580251776    9.84607890687865   -1.10188147569498
C         2.05677797306517   10.50124899650239   -2.60597135009816
H         1.02644253413688   10.85916572601901   -2.65423714743736
H         2.70337486429622   11.27976137386890   -3.01725209116259
C         2.19316425644177    9.23203840841245   -3.43604215746068
H         1.91538656094696    9.42117059015180   -4.47047737539827
H         1.54721815524919    8.44934378025049   -3.04444121720237
H         3.21891791289747    8.87038863119635   -3.41640416192261
C         0.03128283148283   12.16730655837439    0.71838285812632
H        -0.51108051237212   13.08827838083402    0.95403539563105
H         0.42037012725767   11.72981382384021    1.65592767362611
C        -0.93771603798503   11.17569260270096    0.08052265911526
H        -1.32894331664565   11.59955724872562   -0.84916370163614
H        -0.40463846909287   10.25758651436239   -0.16785693705154
C        -2.09050143551627   10.84413777398696    1.02004908998952
H        -2.78231253911202   10.15160893692726    0.54686840628517
H        -2.63979292675715   11.74499471644152    1.28857630097408
H        -1.71281961642701   10.38263660832692    1.92923271902373
C         3.58228737130847   11.55167035143332    4.81963953216753
H         3.03864223268065   10.62919860557143    4.57074865702657
C         3.45086377448056   11.76648116761096    6.32842687418537
H         4.05834593078959   12.61154391275161    6.65111808103249
H         2.41976556551480   11.96100492999745    6.62065835262905
C         3.93066757498214   10.50428273889530    7.04900095389720
H         3.83943547235569   10.64349905527490    8.12858113356797
H         3.29122180521950    9.66484084029012    6.76618326092639
C         5.37742435965161   10.17717201928817    6.69103146561945
H         5.68193798707305    9.25482213552219    7.18890054309797
H         6.02884420350598   10.97886524763358    7.04796107618467
C         5.53563536031248   10.03410147238103    5.18023620696642
H         4.94816993077877    9.18267320367621    4.82884771248825
H         6.58111717245237    9.84529051644881    4.92934944589001
C         5.05412301342955   11.30585349075675    4.48909041746904
H         5.65606639842234   12.14185893448652    4.84930068136950
H         5.18837715788339   11.23274834555984    3.41050346130560
C         1.25399151561941   13.24147359749845    4.53746704432711
H         1.53964426526420   13.60219314294646    5.53199118566348
C         0.49336476226712   14.35570450901414    3.81912450195318
H         1.10340608974604   15.26007734944081    3.77000855585408
H         0.27178546474401   14.03310670115472    2.80073463481987
C        -0.81035712319956   14.68824829361813    4.54145826938955
H        -0.58313720823949   15.07292144324732    5.53909641831524
H        -1.34028431925810   15.47270979098744    3.99614676786768
C        -1.69132313426725   13.45121739177228    4.66830528454369
H        -1.95959255647856   13.08961397353001    3.67362233161851
H        -2.61373276742518   13.70196846359846    5.19579026775683
C        -0.93848616124644   12.35685204483449    5.41487286076628
H        -0.71036605931772   12.69908382103887    6.42784519391300
H        -1.55924052638599   11.46296345825440    5.49561539261010
C         0.35584984944192   12.01186045723188    4.68478241812882
H         0.11222620771804   11.62468399942395    3.69539453721116
H         0.87470771030951   11.21910886725901    5.22376922733132
C         3.79488350974093   14.36844086724678    3.71804384141251
H         3.12538985180715   15.09431306707125    3.23813933921732
C         5.04570369320386   14.29293211721398    2.84392837042770
H         5.79812846448795   13.65534784878832    3.30647946577200
H         4.78116930803255   13.84731338661505    1.88208240005453
C         5.63153342414773   15.68943337194627    2.65841048513489
H         6.52629344805891   15.64135198184626    2.03400039739528
H         4.90522473264261   16.33261934470495    2.15459060420493
C         5.97997642531490   16.29188649687955    4.01734769977008
H         6.76240647089023   15.69103562552774    4.48666968188107
H         6.36970473025441   17.30380378721798    3.88908212876240
C         4.75379583081921   16.32145920216031    4.92642205482973
H         3.99864553520716   16.98368428471441    4.49551569565922
H         5.02851510450267   16.72301053233862    5.90427111039718
C         4.16534366491577   14.91941984552755    5.09143474171822
H         3.29338309719579   14.96554628324330    5.74579548236031
H         4.91399258279617   14.28031071436977    5.56019072854915

