91
CSD_code = EKUNUV | q = 0 | S = 0 | Stoichiometry = C45H36CuF3N4P2 | MND = 4
Cu        6.02096761775246    6.61090329137891    4.00431634093733
P         5.11015841472137    4.99330088749427    2.59884795755463
P         8.18258411864410    6.90343558473538    3.63310493726414
N         5.01703678426385    6.12553011267232    5.74952996838364
C         5.62418513721853    5.38251599693716    0.89914633716277
N         4.59274861864897    7.95899900839938    3.80576761736256
N         4.10646135654712    8.81323938694348    2.91827669813928
C         9.06043995307323    5.39879664187843    3.12760224873988
C         3.62745459508299    7.71323136198856    4.70540639071973
C         8.56609879372629    8.10482287621285    2.32190371628399
C         3.83549062754333    6.75869709950054    5.76084333569474
C         5.25083333590615    5.20261696201154    6.67203942569502
H         6.21762997836658    4.71859777506554    6.61933369199537
N         2.51096352341470    8.40168704579806    4.43543000332258
C         5.96683616686187    4.42531331953044   -0.04919844949894
H         5.86832268025267    3.37363208778253    0.17986742876445
C         2.86089815571391    9.05642802417371    3.32308620693079
C         8.50230644063056    7.81197465933783    6.21069408241258
H         7.43422635394086    7.63619683075042    6.25825178594812
C         2.85556747259611    6.48125174631029    6.71195105413271
H         1.92609332424322    7.02519519438511    6.66149837497292
C         4.28333756493510    2.31480143587245    2.13755132893659
H         3.39030131685331    2.71949146354458    1.68121159075462
C         9.70814071900555    4.59745085597688    4.06440993768263
H         9.80709711271664    4.94200199323448    5.08511201375112
C         3.09488317852817    5.51600664074747    7.67362266409871
C         9.17366405142258    7.53356304869826    5.02533027214938
C         6.44384520427638    4.82505051277968   -1.28541212867125
H         6.70803989968472    4.08021208717238   -2.02255630075826
C         4.33134865544143    4.86385356585087    7.64296060311302
H         4.56500268347202    4.10114297325984    8.36996968558704
C         7.65131183385339    9.14155001870151    2.15835336735886
H         6.76729357217012    9.17203277242801    2.78207352394561
F         2.21808250191091   10.02823439272966    1.28130296788648
C        10.54370516520369    7.75768430252739    4.93274860157989
H        11.06325189582457    7.54497352966564    4.00930820078837
C         8.90734476441793    4.93939700256394    1.82023783759911
H         8.38830053779688    5.55412807205390    1.09820982377626
C         7.86262256790652   10.10555587596902    1.19034116650707
H         7.14620676275241   10.90298883379485    1.06173895738142
C         6.58253702658569    1.28687810453305    3.31216484824635
H         7.47649060519436    0.88777083627964    3.76901264451370
C         5.24535874417856    3.17561462054228    2.65653042547200
C         6.38946210659452    2.65459806814847    3.25237775599581
H         7.12282554640754    3.33580816007370    3.66449566044105
C         6.58797550142950    6.17132673807902   -1.57950453477460
H         6.96745759268435    6.47456361569021   -2.54426563498677
C         6.24942488134843    7.12800003881974   -0.63502130503199
H         6.36485899248430    8.17841316960312   -0.85727904407635
C         9.19678827013525    8.30512156333330    7.30098864087098
H         8.67535506555358    8.52125422119847    8.22192051583884
C         5.62591397807471    0.43257718740702    2.78842598047137
H         5.77206731150567   -0.63661639707186    2.83544081543586
C        11.23233674062880    8.24974958486925    6.02543993834642
H        12.29634847039585    8.42358846926570    5.95686269621681
C         5.77490349625586    6.73743256896104    0.60267744365881
H         5.51863658942773    7.47941616953837    1.34804396635852
C         9.69422494523616    8.04015948550868    1.51125763497840
H        10.40265626663946    7.23088129427514    1.62397443957365
C         4.47748568267465    0.94740411380897    2.20669729075329
H         3.73187158339898    0.27854412830332    1.80160979676667
C        10.56150425867991    8.52283347166036    7.20810435242389
H        11.10558019122440    8.90823552904525    8.05774643233959
C         8.98560725586528   10.03776920404487    0.38148320875657
H         9.15021028889962   10.78595518861968   -0.38009145279803
C        10.07754939702581    2.92327731341614    2.38422773891730
H        10.47478456139346    1.96147854417074    2.09547759715138
C        10.22209423684668    3.36964245545157    3.68806619881437
H        10.73198263877331    2.75532906206645    4.41624413741817
C         9.41843138771069    3.70973314536118    1.45233177266187
H         9.29719630897820    3.36174673648839    0.43705589100360
C         1.94613618511791    9.96678477079588    2.59758200073897
F         0.65762114977006    9.59934823517860    2.69486316219062
C         2.08010334298649    5.17628823086793    8.71631057748899
H         1.92199942959907    4.09959114678650    8.75820069070898
H         2.43201810024168    5.49757637599878    9.69665984736376
H         1.13309227426203    5.66759869813177    8.51040591669651
C         3.31598426415743    5.26433083576252    2.59606747245375
C         2.60518138970431    4.74505063649793    3.67819092516965
H         3.11364868365483    4.09886972536494    4.38489278295255
C         2.67679584323838    6.10833387328421    1.69481108390597
H         3.22440749762961    6.53295196425122    0.86533504867372
F         2.00191228140964   11.24028072116194    3.04361278993626
C         9.89752764169173    9.00693852108398    0.54325152772824
H        10.77160245601371    8.95469273946956   -0.08995901223660
C         1.27170498032974    5.05869674662866    3.84833784279361
H         0.72863477027113    4.65869001940269    4.69255449615074
C         0.63893183584829    5.90274162355883    2.94931114839749
H        -0.39658447386560    6.16978929528983    3.09398041101657
C         1.33998845491084    6.41791592687976    1.87249272907439
H         0.84879053175320    7.08165825249621    1.17658944111270

