92
CSD_code = EKUPOR | q = 1 | S = 0 | Stoichiometry = C45H37CuF3N4P2(1+) | MND = 4
Cu        2.88920110168822    2.92106261813210   10.51241091487837
P         2.67262754329872    5.02498220428024   11.26595938616177
P         3.71868043699514    2.54537699079065    8.41854514052966
N         3.67472781295702    1.15150845682121   11.31603327894349
N         1.11242044539530    1.79812658822904   10.74236003414081
C         4.41326025413315    0.88831437249797    8.14366750139590
C         5.08541966149061    3.65926762752456    7.96388761952801
C         4.30316913886142    5.71606478719146   11.69754234734868
C         1.75348610515884    5.35746896449817   12.79779810537970
C         2.51399811211789    2.72857994923108    7.07379303731149
C         2.01748209522797    6.20626072113458   10.05301301656173
C         5.78144251264501    0.64028194040912    8.16899007902186
H         6.47629435475489    1.46522288714632    8.24212974527766
C         2.70060195785534    6.29203156909917    8.84006191248910
H         3.60423619758308    5.71128657802321    8.69842712826005
C         1.42457807853974    0.55930426189334   11.10039736589333
C         4.96284256328450    0.86773896291210   11.41991599563122
H         5.63192937871830    1.71738568291065   11.44947832088598
C         3.52066060780561   -0.17984419855181    8.06075682494494
H         2.45596280170341    0.01987373737290    8.04740073478208
C         6.24856960375280   -0.65916264752006    8.07930455138792
H         7.31198722131858   -0.84621825281295    8.07936404156877
C         5.88469048740354    4.11663151286460    9.00968564063269
H         5.66674960371561    3.79061468099852   10.01987693557013
C         2.79258621415085    0.13989501742816   11.28063145578379
C         5.46363847601219   -0.42750758247355   11.49629755924365
C         1.05769651569992    4.31627053164080   13.39992143893989
H         1.08215796562981    3.33491003902923   12.94278745404725
C         1.75921925245028    6.62108499870094   13.38288500006302
H         2.31636920844260    7.42445803879397   12.92067861849797
C         0.84435847105472    6.92767009673072   10.23692493453466
H         0.29647342601343    6.84474520504538   11.16369733173234
C        -0.23192451166500    1.80351073938025   10.67919592850593
C         3.19118510798441   -1.19239033062403   11.36448016708010
H         2.46427529687452   -1.98816538596617   11.32836796471639
C         4.77233539238168    6.95459882996303   11.28104975434025
H         4.15937850605693    7.58742424422338   10.65554729572869
N        -0.76555816699146    0.64018812521620   10.96789559744875
C         1.06544542618008    7.83923281949800    8.02385313448049
H         0.69339048912679    8.47684880617237    7.23647905911645
C         4.53873145412334   -1.47279745342119   11.47079138789445
H         4.87876097433303   -2.49518664291618   11.53148354007237
C         3.99315315729373   -1.47461817015773    7.97358765459145
H         3.29939392677964   -2.29835629179655    7.89292744540866
C         0.37719248264785    7.74535544519055    9.22219852552425
H        -0.53219002387496    8.30873433400939    9.36734875237028
N         0.27791438757212   -0.14282308410765   11.22997496755787
H         0.12590731781431   -1.10270190974194   11.50240228778495
C         1.41163593023466    3.54007187217287    7.32633527005724
H         1.31155326152972    4.00777304740008    8.29795698824089
C         7.16553730859854    5.42113997897051    7.46557749198787
H         7.97212264752910    6.11022631506198    7.26780787736872
C         2.65273205220764    2.10700367564157    5.83531397435461
H         3.49940883627257    1.46144412821035    5.64356999355340
C         0.34377037516421    5.80018826707026   15.13922127704797
H        -0.20983036389062    5.97597812477731   16.04881135164279
C         0.34985541946527    4.53858394129201   14.56749093813553
H        -0.19696424808827    3.73155019253831   15.03201830885289
C         5.10439855460616    4.90631674067895   12.50004273037814
H         4.72194100277127    3.94150395476217   12.81499183488816
C         5.32595151305830    4.09559410755997    6.66632096976423
H         4.69708727672607    3.75921048884381    5.85479255214387
C         6.82660604056271    6.56883712231731   12.46720024025849
H         7.80855961537344    6.90353128902690   12.76557460911046
C         0.60466941137891    3.13183631608035    5.10938821959188
H        -0.13760077460240    3.28644945012678    4.34146953861829
C         1.05137697394671    6.83740344828327   14.54996470953090
H         1.04987046125575    7.81703075507341   15.00362206517923
C         6.03382676693156    7.37483689745404   11.66763897940300
H         6.39750963437972    8.33860959851428   11.34421861371756
C         1.69601726867181    2.31395639988374    4.85833835663038
H         1.80184269370080    1.83464826150891    3.89657998386042
C         5.35868510476606   -1.71606574921075    7.98385926970953
H         5.72674169347691   -2.72799804484434    7.91021810578297
C         6.92360806174827   -0.69045199480867   11.62112270169404
H         7.50428192860895    0.18859832739020   11.35643005145689
H         7.16429609496074   -0.96516587500617   12.64831348273250
H         7.21607948270438   -1.52042921837407   10.98212860542971
C         2.22896780067033    7.10974161365333    7.83208473912710
H         2.76441589276945    7.17352491877582    6.89652275514041
C         0.46085094055321    3.74451940432516    6.34387106770954
H        -0.39298336699773    4.37268422738024    6.54514751273960
C         6.92385000489407    4.99282674421987    8.76158427288999
H         7.53477739048388    5.34827776350495    9.57778417417338
C         6.36841256153361    4.97318555353600    6.42399168551919
H         6.55688220575492    5.31294444875679    5.41679247951785
C         6.35993581318708    5.33212985305752   12.88704890739331
H         6.97718937104067    4.70535417529904   13.51378588901005
F        -1.44191004685821    2.99387704117964    9.05178739721936
F        -2.08257155846925    3.19031311561077   11.09749592459996
F        -0.25962209767282    4.12705573775582   10.44475505533523
C        -1.01437375626592    3.02551316972481   10.32032213468946

