70
CSD_code = EKUQEI | q = 0 | S = 0 | Stoichiometry = C29H32N6NiS2 | MND = 4
Ni        6.94360645440802    8.63539270327271    2.49663754456643
S         6.07497185881572    7.97596420259526    0.53604756615865
S         8.35558756616651    9.55301372780590    1.01704145652547
N         7.86407032819980    9.29577892176919    4.03055379063446
N         5.54960532645230    7.88898581287570    3.57252069487658
N         5.67698368622163    9.24280316742453   13.60466980136189
C         6.12854879345621    8.91038073141604    5.73620445897923
C         7.37772333664917    9.38694326031134    5.32150563125751
C         8.38638175927548    9.94277943637125    6.14866618880872
H         8.30241953613268   10.10906901182920    7.20479411308846
C         5.26966716530738    8.19826901982355    4.89307108210596
C         9.11064795332753    9.77422597532389    4.05449689244154
H         9.73070131037113    9.82303265148046    3.17545651548150
C         9.47450593509923   10.18167316433331    5.34433870502173
H        10.42415264976968   10.59238313281804    5.62794048613233
C         4.52751963617182    7.15466929120314    3.12702484127222
H         4.49112365446045    6.75614531042443    2.12724355032971
C         4.00544442899030    7.64966549506153    5.22975091882968
H         3.50999621160074    7.75967429867574    6.17417290319948
C         3.55178832247516    6.98274724014045    4.11796857531031
H         2.63363111633175    6.43931867395878    4.00595269827976
C         4.95660488737969    9.64096114422700    9.80297363969938
C         5.72705300197004    9.14762501315143    7.12584721934345
C         4.99589786918351    8.34109843998770    9.28196230611023
H         4.75591745199389    7.49297818673708    9.90339128535678
C         5.70379527268841   10.44340166478260    7.64185036382446
H         5.95989856486353   11.27092113219273    6.99706513799185
C         5.36000497057449    8.10551935259602    7.97290454150887
H         5.40397149398753    7.08950204157849    7.60945190122725
C         5.31404935191029   10.68635039792987    8.93844802831574
H         5.26077445322197   11.70947335974993    9.27753436410567
N         4.51977947170796    9.92101674745634   11.08422831733091
C         3.94294408429387    8.89562506566714   11.92759974534255
H         3.21393035374192    9.38306754034898   12.58525074114177
H         3.41239964144307    8.16418309020038   11.32075970229976
C         6.26952393887874   10.25586365771429   12.76378064805716
H         6.78611959836556   11.00709624496087   13.35698701559469
H         7.00286736356985    9.76728601007620   12.11158923884555
C         5.18946435928355   10.92104265342616   11.88653370390717
H         5.65051288536771   11.67861356761569   11.25664391468733
H         4.44837670842964   11.40267780648770   12.53495426699473
C         5.00923518084910    8.23019849713477   12.81012735908716
H         4.55280034680413    7.51008001804044   13.48694905385559
H         5.76224528205639    7.73745222992605   12.18711100530894
C         5.20576900957437    9.50305672955505   14.86471196021121
C         5.69308564252070   10.55279249386735   15.66443964502055
H         6.44003125458667   11.23971581249445   15.30104543729941
C         3.84517869547995    8.79368556519399   16.56931315988566
H         3.10886162874300    8.06072523800212   16.87539309592795
C         4.25795335660408    9.79683749125924   17.42505948161007
H         3.85901871676857    9.88047777089862   18.42281417870973
C         5.20942713393069   10.69059069694210   16.94635867989351
H         5.57213326753047   11.49173598037479   17.57492045332969
N         4.29173333925116    8.64815939298579   15.33566359909478
C         7.29673906309187    8.92938792916115   -0.15208571083840
N         7.40099158014451    9.17670837566810   -1.45632859556991
C         6.45684258063349    8.58540262088419   -2.38283933043790
H         5.47484748043745    8.57357776007482   -1.89948335209976
H         6.40362813510987    9.22512586104957   -3.26652919181877
C         6.83334101196035    7.16095336877528   -2.78141062940354
H         7.77853295536839    7.14068121305382   -3.31721905176082
H         6.06084686299120    6.74735067289122   -3.42368624099729
H         6.91769501546714    6.53684077796962   -1.89578079586211
C         8.49211784066992    9.99065228458238   -1.95320007236426
H         8.17988117454503   10.43233981749612   -2.90200375805761
H         8.66631457177948   10.79575132827297   -1.23232919880722
C         9.78427145540722    9.19907817807733   -2.13732618644610
H        10.07001764397690    8.73001778198199   -1.19968803606041
H        10.58078470947080    9.87095667448458   -2.44463457404140
H         9.66781231150739    8.42844909310466   -2.89457688102881

