117
CSD_code = EKUROS | q = 0 | S = 0 | Stoichiometry = C46H62Cl2N2O4Ti | MND = 6
Ti        5.84057280951551   -0.14275900066259   13.37443847816688
Cl        0.53767736603302    6.60910455345809   16.61619619796621
Cl        5.86733084873062    4.39598903025917    5.41351765903261
O         7.27596166693063    0.88518121394872   13.52993662286652
O         4.19777517745200   -0.70137797856141   13.06999100602204
O         5.71754794842607   -0.60567841165893   15.07439107607117
O         6.70339585601271   -1.35729815228269   12.42537051641068
N         4.87248556733786    2.15732147058258   13.94264346954976
N         5.12730310111131    1.10848359169308   11.28613588712099
C         7.87879159390166    2.02941122674692   13.75214280819858
C         9.24123660619454    2.25849160292304   13.41613336175561
C         9.74836427400030    3.53610572306170   13.58000714225226
H        10.77012654799801    3.74651052625303   13.30848805100713
C         9.00155811158403    4.59129845490768   14.09344084413391
C         7.70741318597294    4.33478901763199   14.50900762460086
H         7.12100659908547    5.12160113551566   14.96598840228485
C         7.15040745516642    3.07580258610206   14.35782118672411
C        10.12608041747035    1.09720815809511   12.97317711668115
C         9.57862094134496    0.44214945572092   11.69877900710964
H         9.46248106408468    1.18355440389958   10.90928858250896
H         8.61872278927344   -0.02951622310940   11.90670907450375
H        10.27250963714712   -0.32234747632319   11.35219230099565
C        10.13166696255547    0.05591393894954   14.10191329503489
H        10.77452801018988   -0.78213518626996   13.83806757394838
H         9.12071958016865   -0.31348100745339   14.26344096360013
H        10.49944860846540    0.49807094367260   15.02636782966397
C        11.57370902707634    1.52386659391916   12.70594948417365
H        12.02983502715478    1.95367800287331   13.59461342642971
H        11.62837396957455    2.24254228193790   11.89124799539715
H        12.15691478314112    0.65007452335045   12.42130857693011
C         9.61373156812925    5.95493308692360   14.22583386781053
H        10.45741072650585    5.92970774294039   14.91518258160536
H         8.88614279404169    6.67116706226090   14.59951313743976
H         9.98322106229566    6.30483710854556   13.26246877717903
C         5.78079614014257    2.78187326977285   14.91193366521231
H         5.88736316325815    2.08079675805714   15.74962425930087
H         5.35140161037482    3.72393670100529   15.29368922907216
C         3.58778691944646    1.82983937941112   14.58450930441938
H         2.97730810565604    1.28769443641612   13.85937631851487
H         3.81930042043501    1.15063523989740   15.40948254446603
C         2.80374440641725    3.01069110824436   15.10644809008512
C         3.01089712769608    3.49587320853347   16.39411106148986
H         3.71267037457981    2.99804472312031   17.04675257795597
C         2.32054076459301    4.59820690792228   16.86450637206451
H         2.48929793322987    4.96665369297669   17.86413584776414
C         1.40195216160790    5.22703561206676   16.03961056550711
C         1.15905208482769    4.74940964446666   14.76226403812917
H         0.42841365843697    5.23423296254395   14.13404857421128
C         1.85824755426172    3.64573311695594   14.30679743681390
H         1.64917324839748    3.26367392585354   13.31777146762564
C         4.71441171932906    3.02922294353422   12.78133274761753
H         5.68920931798506    3.48164372364335   12.57563899550461
H         4.00726740439857    3.85109628814704   12.98130201319336
C         4.24856979326674    2.24336355153501   11.55941373296058
H         3.24706872804984    1.84141593269269   11.74155757515426
H         4.17934902188448    2.92047974420384   10.69136338623289
C         6.40583577405751    1.50920903503463   10.67229245750974
H         6.94233214334258    2.14476045749854   11.38053812095485
H         6.98115837287474    0.58940537587546   10.53548153127484
C         6.29459484541601    2.23348378467278    9.35070053342202
C         6.21375541314163    3.62186881579615    9.30451075471592
H         6.27189393876551    4.19323014683827   10.21978079704308
C         6.08221259520537    4.29233701479088    8.10139616248009
H         6.02028920080398    5.36892336939064    8.07682560178536
C         6.03563916973831    3.56767209184474    6.92173109584609
C         6.13735900726754    2.18599366112121    6.93883119279038
H         6.11794040140807    1.63173691794623    6.01369002435596
C         6.26811757345014    1.53081463226727    8.14987916684005
H         6.36435860022489    0.45520321430175    8.15760378562605
C         4.43214049599800    0.15587312183427   10.41176507151357
H         5.12814353051798   -0.67218025377572   10.23027660575279
H         4.19069736258523    0.62994035175965    9.44471384390444
C         3.15945341005491   -0.41385932686198   10.98619108500282
C         2.03344802362437   -0.52472666787350   10.18689164053588
H         2.05485670648676   -0.11858814793987    9.18378662020342
C         0.89263124350716   -1.15536843269495   10.64988890033509
C         0.92368869913444   -1.72738303408188   11.91758085402811
H         0.03957440984444   -2.25351616677004   12.23936333620109
C         2.02285688413896   -1.64734668176744   12.75480596410400
C         3.15736717940270   -0.91900738621163   12.30429585220695
C         2.06719728210466   -2.36994680160748   14.09842269401888
C         0.78407293454613   -3.15863497448511   14.38277344971871
H        -0.07664901767432   -2.49736837092991   14.45323114141642
H         0.88563540290147   -3.67782694646599   15.33397207062913
H         0.60106799592599   -3.90493742787981   13.61325594332848
C         3.24523654778323   -3.35629459755016   14.08316122523345
H         3.26497852152363   -3.92608622864789   15.01073950994253
H         4.18417952347203   -2.80905942849276   13.99017979146372
H         3.15038373760545   -4.05236558148964   13.25136270535608
C         2.28553846171582   -1.37276855421630   15.24416388345018
H         1.56287266210470   -0.55975525090909   15.19255908651015
H         3.29568661800166   -0.97121968262228   15.18757890832769
H         2.16559300082609   -1.87797499795141   16.20131720365546
C        -0.34273440654314   -1.26401682020299    9.80475679745058
H        -0.55940725727946   -2.30749042963452    9.57692677962916
H        -0.21951275407362   -0.72615420711233    8.86804409222928
H        -1.20433412589310   -0.85371205490011   10.33038111315673
C         6.64163311499267   -0.77604312013629   16.09004910436673
H         7.39126763813118    0.04588588397404   16.05945601780734
C         7.38319964350738   -2.11163263779577   15.92746414755582
H         6.67433059158641   -2.93344337174004   16.02277402221949
H         8.16074071976560   -2.21784782311715   16.68075578544279
H         7.83119059087556   -2.14433970967526   14.93481480604750
C         5.92756559174459   -0.73413884774852   17.45234860957352
H         5.42949499128506    0.22415240021495   17.58856145785003
H         6.63936515684012   -0.87910918766193   18.26092912836375
H         5.17624572806344   -1.52029856911374   17.48802398058692
C         6.72247015126299   -2.74012736046285   12.32697938927797
H         6.38586383537311   -3.18723878915878   13.28516259657873
C         8.15617422922287   -3.22360908976505   12.04306630952865
H         8.48917832763383   -2.83381420612825   11.08300932323663
H         8.19533185169924   -4.30977027507473   12.02080031503901
H         8.83053190184740   -2.85717930797822   12.81409274556179
C         5.77903915931943   -3.23987961889475   11.21820097380147
H         4.77394810087420   -2.85734945582244   11.38663691874690
H         5.74823330920103   -4.32696468725230   11.21513278883968
H         6.13365191637999   -2.89846863540657   10.24632045713794

