55
CSD_code = ELAHUU | q = 0 | S = 0 | Stoichiometry = C18H26N4NiO6 | MND = 6
Ni        9.66379221064102   -0.00000874917860   10.15666010035103
O         8.35249645852175   -0.55787325491109   11.32327199813842
O         7.03847119833853    1.22338447970911   11.11475110170305
O         4.88255315633447    1.35509767892835   12.49118303516572
N        11.18526252947538   -0.42762839732857   11.78285302259291
N         9.86192067048109    1.99066570732093   11.23438693382657
C        11.68936362780298    0.81951578745072   12.34213331021680
C        10.51567870831755    1.79697922140733   12.52185425421397
C         7.32101050010496    0.10828762175337   11.61337644930439
C         6.40212249727402   -0.50126783522379   12.62047431191052
C         6.70792922910507   -1.73431021362546   13.19127971469379
C         5.87418281398681   -2.30878121412704   14.12669544357476
C         4.71207977361857   -1.64816292231125   14.50496374394597
C         4.38986022449157   -0.42728696880957   13.95334718587934
C         5.22625290081274    0.16631789841777   13.00493697942268
H         5.60608276478253    1.59572381311618   11.84950706950228
H        10.75896144517210   -1.00552180749497   12.50075533922809
H        11.90759261742063   -0.95744600722768   11.30098885194271
H        10.38336638740757    2.63975468349764   10.65307487554500
H         8.90239499293939    2.31335028503941   11.33106887491882
H        12.40047422706184    1.25200797683536   11.63365134591891
H        12.19706125813134    0.67478058778365   13.30616418533501
H         9.79275314067337    1.35485105645070   13.21251151529896
H        10.88448717305752    2.73799195781470   12.95395816257939
H         7.61675421995490   -2.22777588151578   12.87951775119711
H         6.12149094507406   -3.26503509041135   14.56273503933247
H         4.05451940478599   -2.09217898652574   15.23808086594009
H         3.49147131581805    0.09813003079292   14.23778832749632
O        10.97517173717100    0.55790640555776    8.99015066498747
C        12.00675940343036   -0.10818369771164    8.70014546800048
O        12.28903291317409   -1.22350242717458    9.19836657690758
C        12.92548453767717    0.50127191559739    7.69282892240148
C        12.61970796743758    1.73436014806491    7.12207244011112
C        13.45341181018967    2.30880744900164    6.18661525800558
C        14.61549748078653    1.64817020831959    5.80830973396809
C        14.93768895157858    0.42724946339214    6.35987258376690
C        14.10128313080410   -0.16638825403507    7.30825822562389
O        14.44504404506155   -1.35509555048670    7.82213742221000
H        13.72165424770843   -1.59554205823724    8.46404978872035
H        15.83606946414978   -0.09817786449492    6.07541900628857
H        15.27292207555089    2.09206169895061    5.07501186402824
H        13.20598847089090    3.26494009271057    5.75043193832384
H        11.71082075776892    2.22774231207630    7.43375924474188
N         8.14238166030733    0.42763015400260    8.53041245937115
C         7.63829335139547   -0.81950630272186    7.97109668844363
C         8.81199617999233   -1.79694708613126    7.79140552016880
N         9.46569846962274   -1.99067520163085    9.07889678406793
H         8.94422902619915   -2.63978557409175    9.66016175142863
H        10.42522865635816   -2.31334887230031    8.98224676188875
H         9.53494388212260   -1.35475953678978    7.10081065231739
H         8.44322902869227   -2.73794437388680    7.35923323282235
H         6.92717700110203   -1.25202393898714    8.67955415168923
H         7.13060084362330   -0.67479252016050    7.00705503574352
H         8.56877076037052    1.00549124244907    7.81253929890214
H         7.42002775524913    0.95748071109159    9.01218873589666

