42
CSD_code = ELAKIL | q = 0 | S = 0 | Stoichiometry = C20H17FeNO3 | MND = 6
Fe        4.44229620661705    2.31061744315847    1.61474820872760
N         4.54644971185788    4.13385538136280    2.58540933581135
C         4.23020484426096    3.00218863615257    3.40161178959423
C         5.49734642025506    2.28788666203054    3.35318918706450
C         6.62541674280872    3.31533485865690    3.37321310950914
C         5.92132340563931    4.58066544010901    2.86665188875759
C         3.58928414060438    5.21985825272363    2.44942250121108
H         2.58232737257181    4.81256346772418    2.37144455199898
H         3.80804208743631    5.79162517445657    1.54696483367588
H         3.63018891439428    5.89695649642907    3.30875749422587
C         5.74142574316324    2.31835673204757    0.36447341197233
C         4.14794351756747    0.58311959103940    1.63140384999556
C         2.93640749464871    2.55491794605085    0.70919802854821
C         3.22367461070923    2.99261713886939    4.47702971958049
C         2.33005900199035    1.93159725097499    4.59963172808556
H         2.36422456102655    1.13895820504060    3.86484932536996
C         1.41393351571180    1.89592704426638    5.62993332459715
H         0.73852691542995    1.05767854357201    5.71658634356959
C         1.36041761287274    2.92157792102341    6.57257035666284
C         2.26370564732350    3.97499472514324    6.45690100890890
H         2.23518252351692    4.78278711128766    7.17399314808456
C         3.18422459021434    4.01038934441390    5.42831565107996
H         3.88790257580153    4.82936085774235    5.37781204658398
C         0.37531616002019    2.89173391999568    7.66302419857292
C        -0.93778677195531    2.49511802838002    7.41994329937531
H        -1.23451385354272    2.22388310093269    6.41712582891732
C        -1.86647283612502    2.47163706308942    8.44352595153354
H        -2.88292064323328    2.16796391450755    8.23918453442992
C        -1.49782301681178    2.83764795960912    9.72727422337758
H        -2.22338773492117    2.81680977146938   10.52690520866044
C        -0.19418629732328    3.22985731239066    9.98096717043156
H         0.10017176933647    3.51171079784297   10.98158682135831
C         0.73456787355222    3.25999500281929    8.95748885031693
H         1.75447571984320    3.55017154170148    9.16524855330733
O         6.54118208091778    2.25586236768890   -0.45545978693100
O         3.96627069231250   -0.55137354812098    1.64834371656917
O         1.96423733948194    2.63439170951891    0.10080441608941
H         5.63867224720690    1.43311054017421    4.00945060699279
H         7.46417804405793    3.02619250381669    2.74076633387322
H         7.00343826207834    3.45295905450566    4.39083814681162
H         6.37391149930539    4.99061166616674    1.96087466356573
H         5.90416130937898    5.36648306923413    3.63339641913315

