47
CSD_code = ELAZOH | q = 1 | S = 0 | Stoichiometry = C20H22N3NiO(1+) | MND = 4
Ni        1.34753291441390   20.78409228121630    1.15893811924941
O         2.30959605619400   21.33630860948130   -0.24275508375499
C         2.55002570617190   22.53905093739651   -0.61888201590433
C         1.98620293415470   23.66613261106778   -0.03329238386933
H         2.20364269180729   24.62859840518868   -0.46172153257983
C         1.09808289922089   23.60872804303734    1.04923444354696
C         0.48256635919138   24.89795037434078    1.50692060100310
H        -0.60404795541546   24.83101872571812    1.49471319517982
H         0.78657539523998   25.71403885593757    0.85994037327109
H         0.79736897572526   25.13292180024079    2.52332628450076
N         0.79516567584018   22.47255858000619    1.65288574799813
C        -0.19316183380628   22.47110537711904    2.73365634883541
H        -0.02878502106569   23.31296405181364    3.41320917300592
H        -1.19852653034272   22.56645353071946    2.30358885313373
C        -0.08183740654575   21.15013385669949    3.51587593471362
H        -1.05873539002742   20.87227227515979    3.92882556160537
C         0.94870940962120   21.27946103365688    4.64388086542462
H         1.90772991438787   21.58450032772072    4.22585034703213
H         1.08033586481293   20.33205786696061    5.15976512617921
H         0.62197497668461   22.02339042460557    5.36447281429082
N         0.40260084056419   20.15847955832004    2.57349825441088
C         0.28369224327545   18.88076913731994    2.70802496260749
C        -0.45592430001240   18.16140339199729    3.78200927237400
H         0.23716058646818   17.55274647422100    4.36211577255485
H        -1.19124536621284   17.49240490250414    3.33652024038603
H        -0.96672555425964   18.83910368601913    4.45793651168614
C         0.99967779460892   18.12613136108730    1.67372397632300
C         1.03537804428319   16.73947579342780    1.56907028086816
H         0.48816454334123   16.12462385761365    2.26474541368002
C         1.78536143417655   16.15942815449875    0.55824761261097
H         1.82634743432927   15.08610564573296    0.45786983160959
C         2.48254747188865   16.97983404583736   -0.31549294479907
H         3.08151861205014   16.56505806240036   -1.10963087149142
C         2.40117344675895   18.35559071016860   -0.15487986188853
H         2.93335869210512   19.03181133995764   -0.81226768179872
N         1.67937315545265   18.91725408822837    0.80695369828248
C         3.45117387378869   22.68577393380196   -1.78208361122790
C         3.43768196620390   21.70595132832652   -2.77412289316576
H         2.75417952579647   20.87457918942502   -2.68293396420014
C         4.26301250991753   21.81594672940560   -3.87650716395394
H         4.23648772151156   21.05946486945213   -4.64599448358371
C         5.12240726069380   22.89643875624806   -3.99366957304169
H         5.76939839585916   22.98160290739970   -4.85305695729145
C         5.15261768458912   23.86612545176857   -3.00406469613496
H         5.82852222550328   24.70321135673311   -3.08933169951410
C         4.32151078461790   23.76713694821788   -1.90372565921699
H         4.36943333643665   24.51401035180179   -1.12638653894513

