112
CSD_code = ELEJEK | q = 0 | S = 0 | Stoichiometry = C35H67NSi8Zr | MND = 13
Zr        6.88623260378564   -0.11230870564205    4.49979252504505
Si        9.23701655280022   -1.52152186356065    4.58967148869140
Si        9.36051822913580    3.23722563190760    4.22563776504928
Si       11.06596169697732   -0.20539402222906    5.53101533654599
Si       11.33388218212444    1.92392266580368    4.50841504469077
Si        9.62351569408532    4.99387101656700    2.58118967920879
Si        8.79101615624466    4.43266781692355    6.25375427437578
Si       10.24592011316838   -2.56107636071296    2.60931282758060
Si        9.09250692260148   -3.52418787184390    6.02688716984198
N         7.02505419931999    1.77464201139377    3.54561397460415
C         5.54713433811792   -0.31026636458837    2.26684815763584
C         5.11737328386393   -1.89578743553652    3.84709129252488
C         6.68275666994441    2.52641301034138    2.41362239861824
C         6.32238703525732   -2.23739637096997    3.21118726921931
C         6.81229477185281    1.03117894405398    6.75406112874276
C         4.65411955826511   -0.68643662414752    3.29027522651806
C         8.09998915399775    1.80719612440385    4.26472005691096
C         6.59019162892811   -1.25097820498158    2.23044518832868
C         7.42993829983174    2.37610772872258    1.23516533351094
C         5.46948075473677    1.07880526191615    6.33384370531394
C         5.49381759737829    3.27192795455876    2.40274098472806
C         7.16044226171438   -0.32206404907233    6.95555804293782
C         6.98709345282417    3.00526188604841    0.07977212703752
H         7.53758835314898    2.86102567834716   -0.83886919995708
C         5.85113513354269    3.79285760881453    0.08097449354343
H         5.53189650688699    4.28713774921090   -0.82363465687795
C         6.01528276279713   -1.10604223873882    6.68454559758382
C         4.97449571042001   -0.23935777705735    6.31316733862721
C         5.10684905573955    3.91829426052922    1.24176452930867
H         4.20178605374435    4.50816443137026    1.24023447098746
C         4.64751381086336    3.31155010474491    3.63667949308561
H         4.39520714914020    2.28826330576107    3.93391701513625
H         3.72946738379642    3.86607803265728    3.45839197659026
H         5.18852315732132    3.78148381062476    4.45650435316493
C        12.54250158573658    3.07418235929290    5.46340961131439
H        13.52119273659704    2.61414710553669    5.56252402350115
H        12.18196714124758    3.28394988644595    6.46479266415182
H        12.68416735595934    4.02748111828006    4.96288236621383
C        10.67112476138999    0.27634611758574    7.34895477510809
H        10.54970690523359   -0.59391526587031    7.98509328147722
H         9.76070955609582    0.86126620366990    7.40245729025490
H        11.46784437658003    0.87266194171078    7.78373801298931
C         9.98608072862035    4.66483800086153    0.72291350325139
H         9.11400637931817    4.30607962505813    0.18943531888912
H        10.78580921886405    3.94236236129773    0.58725916168651
H        10.30623825937874    5.58407466730205    0.23647783463558
C        12.20744848733431    1.73071210026121    2.80856508200542
H        12.34510411751844    2.68896077625286    2.31720576202347
H        11.64088639002054    1.09454069194544    2.13771579228284
H        13.19023200726601    1.28410189419363    2.92104170376725
C        12.80302432586355   -1.02264703594128    5.71526362462542
H        13.46712578138227   -0.41046205635514    6.31972787831804
H        13.27760899454130   -1.16448582720807    4.75128461886223
H        12.73796112136447   -1.99627890716560    6.19192553358309
C         8.64612677732440    1.50075522467525    1.18968767993518
H         9.54990397021610    2.10212904711436    1.25488074016265
H         8.67218665230583    0.96303799778274    0.24415173296077
H         8.65755125509756    0.77984218970625    2.01522310708414
C        10.30602008409959   -1.53644779854401    0.98346130760974
H        10.92289376019355   -2.03566975390662    0.24066446900261
H        10.73439723879843   -0.55345006601208    1.14511777299000
H         9.32600417674498   -1.40048455754182    0.53914001591561
C        11.19917170806754    5.97119659356432    3.07650764920122
H        12.09031754924305    5.41284346483959    2.80559541322291
H        11.25562344541485    6.17567109385678    4.13748526109261
H        11.24919276229857    6.92553032780764    2.55901443740099
C        12.08691005087190   -3.05862517233353    2.82405265212018
H        12.28012152670858   -3.48593831484704    3.80014259269083
H        12.73107459330414   -2.19240263412342    2.71234261109778
H        12.39598026401216   -3.78941343097724    2.08098389228060
C         9.34406247435330    3.69963158908962    7.93968241715736
H        10.37131230938567    3.35455809566617    7.89291080869079
H         8.73973878677257    2.86525313422953    8.27797239066391
H         9.29672349602549    4.45983161657346    8.71586930513400
C         8.10134909400787    6.16132421412582    2.58184730044777
H         8.26105554446618    7.03791967696722    1.95985847512433
H         7.86270088622087    6.50957356134560    3.58164055225803
H         7.22644119877590    5.64489695667130    2.19767092804382
C         9.34214843015111   -4.16832223336788    2.06438213074271
H         8.34628134367923   -3.95879751023475    1.68575293778083
H         9.24029419736230   -4.86981013053373    2.88595686507692
H         9.88274675813860   -4.67934810108145    1.27117418816448
C         7.55087189263650   -4.60627870189296    5.63059282574152
H         7.43725059238591   -5.41335479834067    6.35036098584761
H         7.62788621927329   -5.06493774836112    4.64957783352432
H         6.63138933356032   -4.02784459154419    5.64767914882189
C         9.63214999684283    6.15193876480730    6.29458318045488
H         9.39217227722959    6.75742943801257    5.42804739135683
H        10.71174161224951    6.05290156474687    6.34425432454301
H         9.32439711646181    6.71240235379742    7.17363177928362
C         8.97966654641332   -3.26796611419647    7.92979343610489
H         9.05292495586647   -4.21937637557515    8.45166187069026
H         8.04616801545021   -2.80774209207588    8.23596065310236
H         9.79001808406300   -2.64539885433418    8.29509845398332
C         6.91827322789473    4.82579265509141    6.40493614373889
H         6.70228631958997    5.42498034997137    7.28607582795495
H         6.32327190511215    3.92160350256944    6.47702109711325
H         6.57173036835366    5.38628452427528    5.54121399809735
C        10.57952192685574   -4.72562577314268    5.85099931533948
H        11.50548974910534   -4.24532395710855    6.15041284993913
H        10.70371967964961   -5.06285104602026    4.82795437922611
H        10.45879919448722   -5.60932603908005    6.47262439217313
H         6.84751495261068   -3.17468176589746    3.31640407432512
H         5.38163735745248    0.48187826696859    1.54937350139983
H         7.36216479097206   -1.31264770595884    1.47723330125806
H         3.68828880193380   -0.23060521965257    3.47730746826624
H         4.86588542640893    1.97183890035420    6.24086979350364
H         7.42926140662423    1.88300160843566    6.99160749748054
H         4.57136850868421   -2.52289714387236    4.53998039350537
H         3.93786812814019   -0.51589400324542    6.16867351610978
H         8.06714123353609   -0.67367258172660    7.42162175561698
H         5.91878158144062   -2.16548540030063    6.88271492963409

