73
CSD_code = ELEJUA | q = 0 | S = 0 | Stoichiometry = C19H35F6N4O6S2Sc | MND = 6
Sc        8.06202655513778    3.60682622679993    8.32072159989209
S        10.07373311262252    3.60698394789222   10.29683233754701
S         5.52287234573114    3.60681193055992    6.23877741637407
N         7.16539859149208    2.12289631846088    9.48122480594879
N         8.77854179163040    1.46883856826218    7.14614850042720
O         9.94213912578627    3.60685120851147    8.83264027610729
O         9.65366812166640    2.37718908001344   10.88952551705597
O         6.81697841758449    3.60679986880989    6.93011949566199
O         5.27425459471815    2.38007857882278    5.54772288795247
F        12.34278009742830    3.60699559497847   11.74918700864084
F        12.47600291356042    2.53058742322846    9.88858528266900
F         4.59076917923867    2.52647454320727    8.44078707523030
F         3.07602051826888    3.60687364523144    7.35732544354026
C         6.49778620046006    3.60678315134743   11.25208514651747
H         6.12421442140723    3.60677051628009   12.26536672833615
C         6.72213038747623    2.33801509178326   10.70761590796885
C         6.41092041993951    1.16861058566725   11.61119327497732
H         7.30774366332528    0.56587379325673   11.74377841138027
H         5.62961661428049    0.54384846012801   11.17932929788631
H         6.07858911109843    1.51061029232392   12.58572453761382
C         7.31883374197591    0.74174426649748    9.04915434459964
H         6.38870799325188    0.17932702267932    9.22421393059265
H         8.12638866169563    0.26079167992247    9.62460230351755
C         7.61372725980762    0.65938281708817    7.54528333310961
H         7.77168358787544   -0.40213158475431    7.28851117629780
H         6.74027009423301    1.02810260056931    6.99658684265784
C         8.77766773447105    1.65020562372695    5.67923039092309
H         9.60284842442157    2.32153852432778    5.42570137453659
H         7.84288882301803    2.14893757636121    5.41045471202301
C         8.88607031156741    0.37060009573185    4.84144419906951
H         8.91693412208150    0.64784881906638    3.79088812207851
H         8.01965683396545   -0.26761061713264    4.98720642969224
H         9.78663398791801   -0.19446695318624    5.06716125537613
C        10.00724482474081    0.79136281397411    7.61385339049342
H         9.97114839808954   -0.27663790249054    7.34127957364112
H        10.02916816591073    0.86863640166774    8.70454877465141
C        11.30157700066213    1.39646650051131    7.08389323666140
H        12.13866822570566    0.98194899586477    7.64038643957682
H        11.29494525292154    2.47152014645733    7.24207084459951
H        11.45737362444665    1.18450656932538    6.02876237121282
C        11.94675797503712    3.60686079896704   10.47834684131918
C         4.36452063953270    3.60684858927059    7.68993580880582
C         6.72220867970512    4.87556240078721   10.70767629167815
N         7.16542981002391    5.09071199118637    9.48127265094731
N         8.77844725544265    5.74480852440236    7.14606669955386
C         7.61371667434206    6.55429958206907    7.54537750396160
C         7.31896878634264    6.47187531445461    9.04927287527351
H         6.38891918628132    7.03437860248992    9.22445860332625
H         8.12663184696097    6.95270058832712    9.62467390179567
H         7.77170043707362    7.61581996568135    7.28864717998332
H         6.74018431173856    6.18565192146893    6.99675056382694
C         8.77738486972983    5.56353400148234    5.67913530272005
H         9.60249054472106    4.89216586212267    5.42546065817479
H         7.84254480336398    5.06487722575915    5.41043809949920
C         8.88576564644116    6.84318312709624    4.84141347158354
H         8.91647285647934    6.56599259265050    3.79083758354076
H         8.01941432261735    7.48144407620797    4.98732390090585
H         9.78639735220694    7.40817611088882    5.06704470913921
C        10.00724259376773    6.42219801013123    7.61365104246107
H         9.97119425051117    7.49020362361265    7.34109246506304
H        10.02927821800250    6.34491418887799    8.70434297302801
C        11.30146520099414    5.81699366594691    7.08353655276803
H        12.13865380713463    6.23139236581975    7.63997142477039
H        11.29473272879920    4.74193041883183    7.24165438573033
H        11.45717996397699    6.02899453671867    6.02840141969525
O         9.65387478720492    4.83696349704614   10.88929310894694
F        12.47615802430708    4.68290728053070    9.88830704523030
O         5.27428777177551    4.83353895658116    5.54769899341399
F         4.59081909957945    4.68723098985134    8.44076046572327
C         6.41113478049493    6.04494297281185   11.61133129709286
H         7.30801393680489    6.64760162721704   11.74389420010862
H         5.62985361068641    6.66978702684040   11.17954460741191
H         6.07883197630843    5.70291734209675   12.58586337548085

