62
CSD_code = ELEKOW | q = 0 | S = 0 | Stoichiometry = C27H30Cl2N2Ni | MND = 4
Ni        8.33707237618944    3.48284711440290    7.58579372177464
Cl        8.40499770058782    3.52501764664698    5.54173025640915
C         8.63059142475050    2.09593764756396   10.25767449291367
N         8.00143025907193    2.98324194146797    9.48754137389603
N         6.60153656656783    4.37818096734320    7.80552206982594
Cl       10.39794391526435    3.54141428499069    7.73186758401738
C         8.38357450683386    2.05472789675836   11.63366126925375
H         8.89671921005737    1.33007481809819   12.24518665440017
C         7.47595822079149    2.93226457031560   12.19595531002789
H         7.29515487215357    2.92435937801940   13.26120676442294
C         6.76968175009989    3.80793605683802   11.38014822296536
C         7.05790459184917    3.77834604899877   10.01472921194854
C         5.73154456243854    4.75517377398065   11.89860016876682
H         5.99129089584574    5.06842493028189   12.91168931139834
H         4.76940002556779    4.23368808169662   11.95300185759583
C         5.60165506962929    5.96664209653516   10.97773781472839
H         6.54394723839080    6.51995689895199   10.97445824337088
H         4.81997970346813    6.63317117277205   11.34493302026592
C         5.27210926042300    5.51546155474515    9.55678724580302
H         4.30811630229924    4.99394643725859    9.55265782308307
H         5.17817478125169    6.36686474972592    8.87897046796389
C         6.32285520500074    4.57457018991698    9.04707515666715
C         5.90907882150079    5.07623004830398    6.79603603652611
C         6.46325707869665    6.24317586083583    6.25850914371550
C         5.74722058935385    6.91317020187273    5.27700840981943
H         6.14281648442255    7.82528052224683    4.85916817333460
C         4.53979465447842    6.42339583452566    4.82035485387981
H         3.99791864991148    6.95493533470611    4.05229540352764
C         4.03077038489247    5.24121020460945    5.32720950604631
H         3.10211736474285    4.85876909960050    4.93623064386601
C         4.69783365207108    4.54989222489116    6.32533659917298
C         9.52795228520082    1.14328221145698    9.59686354429330
C        10.68765799661581    0.68390181010403   10.21477074230151
H        10.95895950891280    1.05212591298174   11.19311691987776
C        11.52193359972820   -0.20035039729835    9.55671026869802
H        12.42849773758665   -0.53817391053336   10.03658942780307
C        11.20690151608018   -0.64028461611501    8.28202040858220
H        11.86587289434514   -1.32424286216845    7.76861438107512
C        10.05056018298834   -0.19524394059623    7.66141298806391
H         9.80524190704954   -0.52956105005615    6.66496640309545
C         9.21506187851976    0.69104476117166    8.31188323628648
H         8.29684753914268    1.02479234503137    7.82411868957451
C         7.80751354593685    6.75776245704741    6.72450001984826
H         8.31332361044453    5.96280969663063    7.30343401667218
C         7.63966365271249    7.98023769271376    7.62969116463217
H         7.06161046333030    7.73860929266388    8.52001412056414
H         7.12794952557488    8.77916177731252    7.09640262411226
H         8.61434183776956    8.34542497543531    7.94526777484502
C         8.71866689644622    7.08494464277707    5.54117627139076
H         9.72005302693815    7.30641451321085    5.90297643300149
H         8.35778842773965    7.94561470462802    4.98369254680087
H         8.77692865353422    6.22833209662479    4.87516694142236
C         4.20536263423047    3.22238279414726    6.85989530973685
H         4.41474301402139    3.17777174298037    7.93581239812828
C         4.99514583397136    2.09730546053339    6.18315448797427
H         6.06446323896459    2.22497706119765    6.35606803050243
H         4.82608199895167    2.11329784399319    5.10955189703057
H         4.68945946397308    1.12893503800084    6.57451250813074
C         2.70473612801450    3.00546457665981    6.67687235675461
H         2.13920015607367    3.85373085193359    7.05725726054675
H         2.39571959482120    2.11458896041720    7.22022456440981
H         2.45631513181343    2.85823596820841    5.62948545246078

