61
CSD_code = ELEKUD | q = 1 | S = 0 | Stoichiometry = C22H36IrNP(1+) | MND = 6
C         5.79316719736859   -0.42504440529093    3.57335477864134
H         6.19145938413782    0.50135956824329    3.16857277519654
C         4.89469120083298   -1.13842309501583    2.76434954293264
H         4.68533132906130   -0.73048277234814    1.77589564561595
C         4.69331949079071   -2.63281056963570    2.82621414785980
H         5.54111866415676   -3.12894712557849    2.34553296307601
H         3.80554880808904   -2.88118104858714    2.24188372772502
C         4.51664419102624   -3.15438799531003    4.26316360762700
H         3.88843748942185   -4.04525444484083    4.23748376247591
H         5.47616461713879   -3.44876968138725    4.68592335237853
C         3.86981749444359   -2.12552114778047    5.16035134941523
H         2.85159781612450   -2.37965072316753    5.44172498306546
C         4.57580172679046   -1.24145003108213    5.95742054214135
H         4.10466733293720   -0.86617725816605    6.86292707164765
C         6.08031990583754   -1.13863638951215    5.98828196716128
H         6.48647128872421   -1.98741864227766    6.54587911058521
H         6.34652715357515   -0.23637571652608    6.54105881540176
C         6.71219354295762   -1.07549922056252    4.58610381385885
H         7.63535613371673   -0.49894759907792    4.64704313204433
H         6.97952888713065   -2.07207410453485    4.23697224171651
C         1.46870891886069   -0.06079957687484    6.38042753714852
H         1.82676667050776   -1.06178433782705    6.56199138513210
C         0.33719593007262    0.37731510667440    7.04075760917434
H        -0.17431043209585   -0.27932577019470    7.72457123755055
C        -0.11665242903508    1.66509981971496    6.80156382719840
H        -0.99748431602306    2.04593972857717    7.29328900621006
C         0.59559696568793    2.45031086813106    5.91402767480943
H         0.28358202207857    3.46151112378559    5.70460042374367
C         1.72893365393100    1.93941398335481    5.29006782307996
C         2.52042258860306    2.78490186099336    4.35468105062867
H         3.40669878202663    3.13832856101870    4.88825476423771
H         1.94948848344628    3.65119382172973    4.02092493569778
C         1.59884572825536    1.37905269344293    1.93273603112085
C         0.95276932925439    0.13457361154038    2.55426090217739
H         0.15197932177237   -0.22377231316753    1.91010233217647
H         0.51525079297634    0.35220315330356    3.52578427543312
H         1.68247168440967   -0.66980274582057    2.66471311205694
C         1.99985668372426    1.03202787727640    0.49903459365926
H         1.14183193538967    0.62144755850394   -0.03050209964856
H         2.78863708638011    0.28187549830133    0.48778920403583
H         2.32884982192980    1.91007408963755   -0.04899628505408
C         0.57895328118359    2.51568132663776    1.93143988986388
H         1.00298764845697    3.45088033670647    1.57950669211361
H         0.15199411884408    2.66799293445131    2.92023095646720
H        -0.23790060921696    2.25130964559496    1.26178982199229
C         4.32899894957000    2.95745422901858    2.11104957580815
C         5.10889964060812    2.25843324824233    0.99480017099758
H         4.46514721312383    1.93687077261236    0.18360673587076
H         5.64986652566078    1.39430675642961    1.36918952300011
H         5.83615309143103    2.95316230701993    0.57792608257770
C         3.62393405010197    4.18388925187235    1.53567137888795
H         4.37758593887809    4.89094655533944    1.19263971591463
H         3.01418568890989    4.69137138822224    2.27927198170242
H         3.00491650680484    3.92835526748511    0.68032262690862
C         5.32363743871401    3.40606299352167    3.19188641765221
H         6.23843270136626    3.76210629777996    2.72318969221576
H         5.58660799978354    2.58305062382828    3.85737264023429
H         4.92567403719663    4.22562786832060    3.78510355652153
Ir        3.78228870151912   -0.11214237501660    4.27316520959991
N         2.15945672652607    0.68643485143836    5.51614288946160
P         3.15907747410824    1.72681351086524    2.96477777109279

