54
CSD_code = ELELEM | q = 0 | S = 0 | Stoichiometry = C25H23Cl2N2PPd | MND = 4
Pd        5.51364041962695    0.91622190598671    0.40845583517793
Cl        4.74073560307714   -0.21629734811865   -1.35374278793327
Cl        6.89762582201882   -0.75428894190135    0.93917352807208
P         6.44602206415285    3.32143235172216    1.03952339733678
N         4.24313747255574    2.40708265691340    0.06251132203379
N         6.19190187740486    2.11436323804195    2.02385224395653
C         6.72437210969120    1.59786746102799    3.19678491587908
C         5.85281327782879    0.77187883047605    3.93150400744231
C         6.29427322311075    0.21248167851378    5.11692643468351
H         5.62980038948641   -0.42642768091511    5.68010631975708
C         7.57363005854925    0.46028216128966    5.58337394325111
H         7.90758463434765    0.02038066226336    6.51086040442672
C         8.42671326041128    1.25970520466695    4.84886292731784
H         9.43244528308587    1.44098150205436    5.20016197819524
C         8.02573683017394    1.83283352488125    3.64964349552111
C         7.32626805693466    3.07383842970762   -0.54862954233142
C         7.10482980945973    4.00539858427473   -1.55955767225247
H         6.53659712118824    4.90297760616243   -1.34415664291434
C         7.60478502276768    3.77239482348170   -2.82814080916801
H         7.43168577380506    4.49223146730661   -3.61450182440741
C         8.30603566479955    2.60622425758976   -3.09152242887336
H         8.67254885271069    2.41593514300477   -4.08894167658836
C         8.53505599052099    1.68169458645166   -2.08341876497118
H         9.08136323702298    0.77442732543559   -2.29055216330054
C         8.04937488210012    1.90773840662388   -0.80559462025021
H         8.25207683269176    1.19248000890229   -0.00965898937784
C         6.94997631296490    4.89841742641647    1.78353051766089
C         7.99227722923374    5.68020221397398    1.30469951590397
H         8.53920240587907    5.36990314797729    0.42540117676499
C         8.32378589055558    6.85032853518611    1.96489106531723
H         9.13231744794870    7.46380337838380    1.59628990177746
C         7.62563891363399    7.23205764982428    3.09965485591715
H         7.89139831693171    8.14422318529348    3.61242067871858
C         6.59256903490271    6.44404722877978    3.58426500911056
H         6.05617348519951    6.73963269573399    4.47346337908894
C         6.25513613467928    5.27565078180973    2.92783551521209
H         5.45980588980764    4.63888686891471    3.29426980741374
C         4.74417076431500    3.59702677993136    0.42356135281914
C         3.99619399172792    4.76016637551301    0.37328799703538
H         4.43681398476504    5.70037523757232    0.67210153448521
C         2.68383724245790    4.68205350137574   -0.07160569723640
H         2.07194419842073    5.56950003070941   -0.12818954386268
C         2.17541023734427    3.44442872611315   -0.44246842224099
H         1.16042362915378    3.34666251011028   -0.79283695891788
C         2.98617740575015    2.32411710201339   -0.36105163969240
H         2.64411910656008    1.33917813304785   -0.65804588506757
C         4.46989830400962    0.49655146355638    3.41589965361376
H         3.91363960857853   -0.11118696957566    4.12507391340346
H         4.51797192650289   -0.05753310018976    2.45262160664425
H         3.92617820187581    1.43172567456694    3.24847935638235
C         9.00032198519424    2.66335833967381    2.87099776683461
H         9.08339899509228    3.66713698159106    3.29210823179429
H         8.69595928124950    2.75512859197215    1.82390518123268
H         9.98550650574286    2.20171966387866    2.89591729919968

