49
CSD_code = ELETIA | q = 0 | S = 0 | Stoichiometry = C13H20AgF3N4O7S | MND = 6
Ag        3.83238604759023    4.85454240596545    3.34986385843284
S         2.92708139823290    7.39142548082456    2.96031169242386
F         0.47438676032302    7.00422131430460    1.91609014571331
F         2.00950533691234    7.29746017629475    0.42872661175217
F         1.87398934275010    5.42878057286858    1.48516987478097
O         2.00398065194581    2.41027458928755    4.96423695581209
O         4.03480938896464    2.25489009251394    1.13480991570425
O         7.23591224932041    4.61176031781190    2.81330989545119
O         5.16786868199504    4.93801066325635    6.56975787994507
O         4.21553424895951    6.98877971941166    2.43147070516176
O         2.48786620112497    6.63142357224283    4.11408310396218
O         2.68940152358289    8.79798690163538    3.01480758914670
N         2.70513657721239    3.57180859276304    5.24816942311822
N         3.18495331461304    2.75931788758865    2.10372866524710
N         6.04128226870283    4.34442338412574    2.17416059301383
N         5.51075747697009    5.21668883894662    5.25833866507194
C         1.44056449392634    2.46259679140903    3.66490706938961
C         2.40037525739658    1.91806163660879    2.64284933090253
C         2.36918634364633    0.44984915745620    2.37505597615712
C         4.77918591219353    3.27921070696152    0.49920468043475
C         6.08448451302249    3.52142397678086    1.21018165746394
C         7.28578687559980    2.76569484243581    0.74488228617069
C         7.13624383995468    5.76244544630748    3.63969586079067
C         6.74937705420091    5.40421035656103    5.04938567918311
C         7.79161125047000    5.28627283248539    6.11384389615778
C         3.76521314145964    5.02725397316429    6.76860863687725
C         3.07576457321648    3.72689437008458    6.45125869524326
C         2.88839218427088    2.74444399323897    7.56052909096347
C         1.75632347606474    6.76887086154861    1.62838654535070
H         1.18776104962610    3.50182872917814    3.42325058829586
H         0.54085668064893    1.84482426027955    3.71285356834146
H         1.47409173567441    0.20204776651446    1.80574221181282
H         2.32990218158658   -0.08995116756150    3.31893628454188
H         3.24343192469453    0.14407429495477    1.80810586161919
H         4.19027274600713    4.20414961090454    0.48982966356379
H         4.95512890625902    2.92097038097758   -0.51764377178455
H         8.13469440922162    2.96082709521269    1.39269102773417
H         7.53363525411740    3.06162950048301   -0.27318084428391
H         7.06375508271245    1.70022142770137    0.74100843768684
H         6.38443381710446    6.43935240874342    3.21702748730177
H         8.12667640321701    6.22217332165285    3.61710150422363
H         8.78655873634936    5.47726039589135    5.72611252921786
H         7.75473153619278    4.28825441516657    6.54908536599688
H         7.56661529602283    5.99004573181318    6.91494303218108
H         3.35219954868491    5.81759837805022    6.13182143541987
H         3.64375868180648    5.27292129146257    7.82579984173660
H         2.55477924396444    1.78581366861312    7.17429232758059
H         2.14426197778898    3.12414434658528    8.25947462599374
H         3.82579440375992    2.62199068850435    8.09932384298858

