74
CSD_code = ELETIZ | q = 1 | S = 0 | Stoichiometry = C30H39CuNS3(1+) | MND = 4
Cu       23.76256841625571   23.76257921605053   23.76220870498166
N        22.55505058959593   22.55508342749563   22.55477688060982
S        25.71845617823424   22.56389487104623   24.13107256217125
C        22.61626449288975   21.15196375440506   23.01444202749217
H        22.09423591361600   20.52070662960276   22.28118095937200
H        22.07039454340321   21.08832111325382   23.95664258206356
C        24.00472662614257   20.55067816295253   23.25194286320394
H        23.84768031097783   19.47807013956895   23.38527699044173
H        24.65089857033097   20.66760786444033   22.38100848614980
C        24.73560947097036   21.06277054468596   24.48722234392827
H        25.44761263697477   20.31715510999160   24.84281647606942
H        24.04087137103150   21.31099431211132   25.29013799754075
C        26.15433115397866   23.04472168967867   25.85513045532470
H        26.76170884713698   23.94314652466621   25.74339536605584
H        25.22196064647252   23.28497146736386   26.36769805151135
C        26.90644050040333   21.95383401577038   26.54418055095934
C        26.30840454521232   21.22344259052411   27.56342419443095
H        25.29962234418263   21.45872703112469   27.87314561963973
C        27.00577285378603   20.20791568911843   28.19431143261655
H        26.53661551349034   19.65095615732604   28.99077592796960
C        28.29962667626438   19.90789227423130   27.80398643759406
H        28.84182758349141   19.11539629882149   28.29588121134016
C        28.89782340090152   20.62737272522242   26.78192595270567
H        29.90641328681420   20.39634912113596   26.47563265825637
C        28.20465582950398   21.64508704642222   26.15374897239111
H        28.66632790105742   22.20540278970719   25.35350685443321
S        24.13120550239507   25.71845189947812   22.56354674925242
S        22.56387815838348   24.13105867560852   25.71815914502894
C        23.01467560419397   22.61626194779937   21.15164239384559
C        21.15192076439177   23.01472262858047   22.61597560927104
H        22.28140260931245   22.09420799091993   20.52041982716902
H        20.52068952718327   22.28146820789248   22.09390555236240
H        23.95687946705624   22.07039850493832   21.08798844509460
H        21.08827913539040   23.95694063005228   22.07013474228137
C        23.25213997524128   24.00470832045675   20.55030781090698
C        20.55057886754735   23.25216443062659   24.00442315785631
H        23.38550290797426   23.84762439688978   19.47770849885437
H        19.47798899950775   23.38558799159203   23.84732405694180
H        22.38118017700493   24.65085398434630   20.66719304597230
H        20.66740728182480   22.38117285652465   24.65053682123015
C        24.48738083653777   24.73565550724625   21.06239430246464
C        21.06271404310209   24.48735012034942   24.73542914202586
H        24.84291220488952   25.44769781428380   20.31678563106405
H        20.31713405063037   24.84286106350339   25.44751206864317
H        25.29034668654374   24.04096197766026   21.31058203688202
H        21.31091051991001   25.29034750571804   24.04077398410399
C        25.85524633487970   26.15457536837905   23.04421092836217
C        23.04458289858774   25.85504302079989   26.15444607687078
H        25.74351118334394   26.76195824996202   23.94263206734801
H        23.94316537871193   25.74325367871209   26.76158169117032
H        26.36797343437485   25.22228617716780   23.28443503198190
H        23.28455044120505   26.36793271714481   25.22217980962193
C        26.54404999947884   26.90676501008328   21.95322107204861
C        21.95375686791556   26.54366495436104   26.90704042093835
C        27.56331567704025   26.30888464171315   21.22273317092199
C        21.22308305525518   27.56302622307267   26.30955164346835
H        27.87326438459984   25.30017557827896   21.45803439438686
H        21.45811283395567   27.87318371950908   25.30084348981006
C        28.19392807703902   27.00631507127993   20.20707782678669
C        20.20759051962153   28.19346887082094   27.00737330834315
H        28.99040593915482   26.53727576143649   19.65003748387051
H        19.65040468154525   28.99002499985175   26.53863780512721
C        27.80330443501283   28.30006972133526   19.90702008052865
C        19.90787978316979   27.80257614974856   28.30112722152480
H        28.29497843195772   28.84231450684100   19.11441662500662
H        19.11540318040227   28.29411849138537   28.84367646353785
C        26.78122862747541   28.89811346285276   20.62660467126270
C        20.62764761613000   26.78039942985191   28.89877917705934
H        26.47471018676554   29.90663308489918   20.39556193919081
H        20.39687414639690   26.47366928680430   29.90729639669457
C        26.15332891439938   28.20488736655470   21.64444959837956
C        21.64533185864598   26.15267153311756   28.20516330560132
H        25.35307147692042   28.66643808595818   22.20484474259061
H        22.20587211387668   25.35233781690102   28.66640797706402

