45
CSD_code = ELETOG | q = 0 | S = 0 | Stoichiometry = C12H20AgN5O7 | MND = 6
Ag        5.49242432229565    4.69762164954367    2.71450632669697
O         5.41042780833096    2.32922312731084    0.35234580053301
O         2.15789483653124    4.51076360561300    2.26731013769367
O         4.33455741424731    4.87015403574022    5.95632813919522
O         7.50147061624961    2.41580810957793    4.16954701982255
O         6.79737596410111    6.66662696329190    3.27773103473772
O         5.15133645791781    6.99216964099874    1.96320755229309
O         6.25289779322221    8.65377472325316    2.72302860997966
N         6.26821986979448    2.82633572034635    1.31975549984687
N         3.32478202890648    4.32154259466042    1.55449359796607
N         3.92026065775410    5.15477209226590    4.66535753983543
N         6.79925183664571    3.56074571293160    4.51101079794993
N         6.07255712526607    7.46205512990892    2.65373822841260
C         4.57635298038862    3.34458840437727   -0.17598006017981
C         3.30094408843748    3.47057306112693    0.61468249549203
C         2.15197589986541    2.59369172134196    0.23880480118633
C         2.24379499548832    5.66766087869437    3.08674681323602
C         2.67584349164957    5.32122639024040    4.48838723204704
C         1.61658534354293    5.19742158705870    5.53381213184432
C         5.74494724387390    4.96588936189491    6.07492280462248
C         6.42516194282609    3.67125856057708    5.71736969711326
C         6.60279187056272    2.65062247072992    6.79243880976724
C         8.03295176655754    2.53362561892838    2.86048225801214
C         7.07077251318830    1.98992111103632    1.84055170845249
C         7.12201552350408    0.52703846996525    1.54923115760933
H         4.36200266294309    3.03916208945628   -1.20255416747522
H         5.10984743438475    4.30276931824989   -0.15917136301508
H         1.74022335239729    2.92197842782060   -0.71522288889787
H         1.37313955823776    2.64024189525492    0.99483964894309
H         2.49613380748330    1.56735904339753    0.12308090932674
H         1.24013483081327    6.09795449567607    3.09512734091308
H         2.96092827793102    6.36512003722519    2.63899264635623
H         0.85398252537459    4.49641436823928    5.19872681613969
H         1.14159497968889    6.16628911107089    5.68273192307515
H         2.04061006952721    4.85825043988865    6.47457281785137
H         5.92560059144031    5.21127827063589    7.12355722862698
H         6.11879375759275    5.76100652567550    5.42020563792324
H         5.67042249176787    2.53293428898654    7.34129931425550
H         7.36614156204367    2.99033296035971    7.49167328813285
H         6.90949186664636    1.69684565807085    6.37195318490550
H         8.95583758628992    1.94900075970338    2.86341204692810
H         8.24380226410549    3.58968038245109    2.65441507497851
H         6.22715225135917    0.20807424346339    1.02168799854172
H         7.22420931360044   -0.02699396325743    2.48025121805683
H         7.99065642522412    0.30989090622052    0.92811119026915

