45
CSD_code = ELEXIE | q = 0 | S = 0 | Stoichiometry = C16H16Br2HgN8S2 | MND = 4
Hg       10.13587365453548    6.95714612097264    5.39274781922560
Br        8.67142232444892    8.68369759476306    4.27777409760676
Br       11.75817843371946    7.26457899330136    7.20075211038220
S         8.93753359642981    4.37806575827127    5.05471319626426
S        11.75610887655744    6.42529588938763    2.99871852101465
N         9.60008018185579    5.59569095190934   -0.39442143124211
N        10.70394678780578    3.11999398567050    1.89127415718225
N        10.46703859864920    3.14361551583472    3.20711742045290
H        11.00154085571378    2.57707015372809    3.84817175425833
N         9.15571586551187    4.61886419818375    2.34742178336633
N        11.75366771579341   11.94854467730374    2.14617369337534
N        10.30357698929848    9.04221977417192    0.60832130297989
N        10.51387956697253    7.79400813176509    1.04454009248063
H        10.11232924914687    6.97393993119212    0.55651514243174
N        11.56185788242275    9.08965067247037    2.41435230571938
C         9.57683560639269    5.90705189680422   -1.68073173863198
H         9.33684267129124    6.93848212963127   -1.90131138606038
C         9.84431507273002    4.99065559875354   -2.68482498235699
H         9.80620228959571    5.28785875548647   -3.72030050204367
C        10.17591048709502    3.69262644539869   -2.32140391644622
H        10.40794749770033    2.95359217317275   -3.07322254636536
C        10.20413637782768    3.35762847816032   -0.97921695542292
H        10.45719992344252    2.36713287444637   -0.63997138758536
C         9.89582938049421    4.34415333606812   -0.04330498459907
C         9.91979344760278    4.02471812453964    1.37687763759663
C         9.53932462006939    4.06721160601164    3.53127331878987
C         8.09996531344749    5.58065002964575    2.20473426340060
H         7.66078683663966    5.49568731487097    1.21382567759822
H         8.47044927749082    6.59780769448460    2.34335901990433
H         7.34854501691655    5.38193732319376    2.97077610091254
C        11.74766051067257   13.26567669598153    2.08391426859062
H        12.43930468137068   13.76206519742826    2.75149725503326
C        10.92287301765429   13.98696170074466    1.23258114202852
H        10.95275853654938   15.06492386269517    1.22325527599380
C        10.06237006929955   13.28436289391827    0.40131887833085
H         9.40277159114434   13.80733714500401   -0.27538547093378
C        10.05795282646129   11.90278001756405    0.45653509959349
H         9.40764503768262   11.30300445563967   -0.15774244828539
C        10.92452556958716   11.27517766539212    1.35382675681757
C        10.92836411068703    9.82529597366222    1.44515970912494
C        11.26944372070991    7.78915560937298    2.15648199044432
C        12.32810756441483    9.56590148533500    3.52946366661987
H        11.70268893139091   10.18791917891777    4.17091049856451
H        13.16477426093087   10.16560885249198    3.17615686634424
H        12.69882517372076    8.70525313615573    4.08979692738072

