113
CSD_code = ELEYAW | q = -1 | S = 0 | Stoichiometry = C48H36N16O12Y(1-) | MND = 8
Y         2.61605567197529    1.80470150186937    9.55595706457540
O         2.96595875443266    3.06266430681236    7.66981048940920
O         4.68221228215399    1.90097051406041   10.54549925101495
O        -1.49895104848989    6.77055576233820    4.94008993173083
O         7.27304142166210   -2.86910790409713   13.94650042858125
O         1.25570271463367    7.29876447620562   15.11598158027198
O         2.29718647224236   -2.41706522789381    3.30702233080618
O         2.45622605317962    5.74379528869578   15.99474721179643
O         6.73381412939504   -1.16089260317566   15.13931938096600
O         3.48773872155494   -3.97445846706134    4.19509839708157
O        -0.98095789593062    5.04306948938321    3.76579224401173
N         2.31593662663888   -1.36720899912230    9.58430606409300
N         2.71550152552971   -0.44741520266139   10.44513122516078
N         4.33807311050703    0.59841502455156    8.35024561311123
C         2.77527492535469    4.78181268898353   11.20302472624917
C         2.63788548361754    4.53321281657308    5.42241910655360
H         2.92616759855890    3.49651414653068    5.35491665797409
N         0.04300295929236    3.37076376174891   10.59036505514363
N         1.59558265128151   -0.94775703390416    8.62476555087068
C         0.33138268568256   -3.71113443137195    5.77100616041032
H         0.03059297888619   -4.41575651374141    5.01122394065616
N         2.76877426383418    4.34317490069016    7.81950493300188
N         2.73203912763586    4.92993888672267    8.94643719145865
N         5.52219652585417    0.98138800108738   10.15835635524095
N        -1.10975013610985    5.61426059319512    4.83979234405798
N         6.57569080243256   -1.88770762625544   14.16819981895761
C         3.32452335910637    4.17051784878671   12.34800385056823
H         3.92369875484550    3.28376025713383   12.20531705906772
N         0.46230216271904    2.90620189342267    9.42627931303763
N         0.58434846328470    2.85321441491463   11.61737551961425
N         2.95564771724165    4.16302130170061    9.99933068526720
N         3.05772961515381   -2.82853180024573    4.17223408547441
N         5.38527423076770    0.29514381345681    9.09725560649647
C        -0.55936389497054    4.87464596729704    8.40532691371808
H        -0.64445499490098    5.34874727772704    9.37078078941940
C         1.16468433026590   -4.11747687781732    6.80279025238776
H         1.50741725239275   -5.14004754930039    6.84563573165121
C         1.57579178053724   -3.21728144637359    7.76617443411667
H         2.22859126062681   -3.51857108926216    8.56839160952027
C         0.68313182910997    2.73026928416393   14.02041945549020
H         1.36811475995784    1.90379581423593   13.91962516262830
C         8.72758006070724    0.08920590766403   12.66980561784264
H         9.53545368734587   -0.16037834080704   13.34009010801323
C         4.13010665005051   -0.24040940939625    7.29322987492239
O         1.52707374026171    1.95319289142943   11.56971868509217
C         3.79926166097634   -0.10102614905138   12.53274793172944
H         3.18227524144360    0.77734175162695   12.64956404038263
C         6.62518188303330    0.69486403078694   10.97489858536526
C         0.31942407593440    3.21646653408444   15.26163422226669
H         0.73320649318266    2.77149060594504   16.15324506144578
C        -0.92162232637453    5.53647108273243    7.26193422823316
H        -1.30507901152972    6.54502264362264    7.29439597392087
C         6.84498043726312    1.46710390133858   12.11095308355410
H         6.18401253838725    2.29389722411235   12.31571076408751
C         1.76413077284947    6.46399493728368   12.60765594705009
H         1.16001293921664    7.34793212345866   12.74536912548434
C         0.16305418617331    3.31731978566958   12.87146404411117
C         2.94823989169653   -0.63730861458698    5.22724152472702
H         2.29401396081713   -0.31813635732831    4.43039283784266
C         3.45125233624152   -1.94338086075153    5.19884739675574
C         7.89617675302325    1.16040027667534   12.95363654978954
H         8.05928673290768    1.74989078490627   13.84251403779933
C        -0.30252800091070    3.59884418477030    5.94105317296580
H        -0.22662409972445    3.13332100331489    4.97028370536090
C        -0.78536293577495    4.91046751558371    6.01952465829276
C         2.17692943216739    6.46335675920816    6.79850475220790
H         2.10755341192955    6.90697029796399    7.77772155235316
C         0.30221477060796   -1.48550666209994    6.66595180049231
H        -0.02013778159955   -0.45718171975618    6.63371230106857
C         2.01239326757218    5.95793622829587   11.35916194614665
H         1.60488961727628    6.42990827205722   10.47866639261916
C         1.14678360408542   -1.89431080109620    7.69300864912692
N         1.98445113890383    6.31946852715648   15.02399499030169
C         5.33892993270964   -2.38932136679411   12.13682632353395
H         5.95681710748469   -3.26568545987876   12.01244089102606
C        -0.02762343160664    3.56991952649138    8.33824752942266
C         2.28649252924377    5.82611591988628   13.73650431249956
C         5.54655998733181   -1.57530055945295   13.25413144910323
C         3.08428819780832    4.68468388449836   13.59426904156829
H         3.49087470814193    4.22449033740455   14.48183573982023
C         2.54062207158270    5.12437962189211    6.67791508947729
C         4.66592743198836   -1.54347076368148    7.22586302982890
H         5.32551287563051   -1.87198058206005    8.01400110377915
C        -0.55835684252160    4.28350107279040   15.36264392938619
H        -0.82445964097808    4.67461363151396   16.33241905076125
C         7.46511837579796   -0.37595337495411   10.67907786576385
H         7.28248902316312   -0.96343520907430    9.79477445060997
C         8.51171247420424   -0.67174933970793   11.53031110331400
H         9.15587247269801   -1.51039406716199   11.31426529829766
C         3.60256808174531   -0.89205177505684   11.38297227072863
C         3.28168485192961    0.20057812994314    6.25781443518293
H         2.89974709999842    1.20879231582371    6.31654686226359
C         1.98692797723833    6.60733594569706    4.40769176475543
H         1.75118750214369    7.18114926083589    3.52485870418981
C         1.90185185897642    7.19623145550108    5.66069492308432
H         1.60393297523886    8.22981673475466    5.74958187504142
C        -0.72916956626554    4.38235818652800   12.96807804670768
H        -1.12439511869051    4.82508064821853   12.06903945739039
C        -1.08363031750854    4.85882314552145   14.21496689707487
H        -1.76187833109700    5.69461618873333   14.29496209654340
C         2.36052681223695    5.27827592226771    4.29228081165293
H         2.42173208970357    4.81723748342289    3.31868571846966
C         4.37519600026035   -2.06093065675072   11.22040323463128
H         4.21160435184523   -2.67047991135029   10.34528951436589
C         4.75545955021523   -0.43768734597037   13.45344539105221
H         4.92444068728973    0.16108421088956   14.33536175445501
C        -0.10200878945906   -2.39674894590609    5.70916056696485
H        -0.74574370136427   -2.07776227002413    4.90413952411588
C         0.07064336639638    2.93928807966705    7.08165144223033
H         0.45971442357826    1.93251585112281    7.05417076839670
C         4.32185825934286   -2.38357516996324    6.20003099646277
H         4.70233274265945   -3.39248064738901    6.14876754691081
O         1.28663976085853    0.30558427722652    8.43869210629567

