58
CSD_code = ELISAV | q = 0 | S = 0 | Stoichiometry = C30H23ClNPPtS | MND = 4
Pt        3.45446420220355    2.47172248045158   11.02975727351872
Cl        4.65847335309318    0.93293020676816   12.14852645517617
S         4.87487194832177    4.40120935855047   11.63382033051975
P         1.69265221151170    3.09371245264764    8.71317216873123
N         2.47333666694119    3.93332884596959    9.85665756719500
C         3.16533867514443    5.09169071446389    9.55996347197657
C         4.27064925176067    5.47232449887529   10.33726857444319
C         4.95850462081353    6.64702599309922   10.08880815052195
H         5.80754020366549    6.89392888458618   10.70831950648401
C         4.56766096343381    7.47953147098693    9.05628523223002
H         5.10608343600278    8.39349195148921    8.86165552194599
C         3.48375950254657    7.11850852936901    8.27081892508642
H         3.17297371620320    7.75229226430574    7.45334468881905
C         2.79755958185975    5.94811464669849    8.51756903447710
H         1.95545419858170    5.66867271712912    7.89798684015050
C         3.56984503377088    4.54713416904398   12.85789866369188
C         2.61172514560999    5.54949038407581   12.79860457642984
H         2.60989566292313    6.26226354282895   11.98594610635338
C         1.65243936904442    5.63198511968785   13.79346763621550
H         0.90303152573576    6.40849999793449   13.74042180298733
C         1.65473977428034    4.73738536218662   14.84921439295553
H         0.90225591066816    4.80940503825126   15.62036784403149
C         2.62946282668336    3.75438059516643   14.91658370065492
H         2.64300112303049    3.05730467590618   15.74057756006735
C         3.59153103162595    3.65563063524331   13.92894962711555
H         4.36089852131085    2.89844692450750   13.98441523586207
C         1.18337606043645    1.57753093340192    9.52006786511951
C         1.99108754156121    1.18641992104063   10.60467804716453
C         1.63251631237252    0.00954860870291   11.26207192001247
H         2.22446334410229   -0.33749292407722   12.09636978261502
C         0.53638305854479   -0.72985562315828   10.85072896395318
H         0.28069240451094   -1.63830069331828   11.37703963847336
C        -0.23905945336648   -0.32428477930331    9.77339245317346
H        -1.09155033249588   -0.91093706822568    9.46387006256656
C         0.08384591728554    0.83688149497189    9.09973272530335
H        -0.51354935152219    1.17427716825362    8.26303465636996
C         2.84423566092495    2.74149423827528    7.35387314998051
C         3.86965166946280    1.84897908746395    7.65621231773020
H         3.87997194350399    1.34963544034208    8.62389192747954
C         4.87094950971930    1.61398619737330    6.73328119463452
H         5.66530928511931    0.92172453062449    6.96741573082222
C         4.85574034304457    2.27357094823149    5.51350035654784
H         5.63979240347611    2.09348807897237    4.79326218829050
C         3.84317974221360    3.17207730759573    5.21949564529472
H         3.84004723929783    3.69381538308602    4.27374130131576
C         2.83666474498782    3.41416810268843    6.13842537740648
H         2.05347644285787    4.12321605642973    5.90875678322557
C         0.18132792242229    3.86449387014005    8.06823613814417
C        -0.39933804465324    3.46512223619096    6.86994888623757
H         0.08865128059144    2.72103538292463    6.25533837758449
C        -1.60142958044657    4.02481917592193    6.47404085735262
H        -2.05330836103940    3.72147702881718    5.54106683238230
C        -2.22655273560185    4.96893833569049    7.27321585794283
H        -3.16251539194886    5.40474960893255    6.95728198645533
C        -1.65816269928227    5.35111371032010    8.47863975271134
H        -2.15269877849300    6.07933136913915    9.10398779725727
C        -0.45778003257947    4.79548888203728    8.87994497349833
H         0.00153347822416    5.07437653028753    9.81935556530713

