73
CSD_code = ELISUO | q = 0 | S = 0 | Stoichiometry = C34H28N6S4Zn | MND = 4
Zn       10.92901407470867    4.74838983573288    7.83040065445852
S        11.89755330362132    5.31983412272767    5.76018706491040
S        14.31999454201314    4.20474490045997    4.73077879428529
S         9.96053261167223    5.34982550587817    9.89215125135208
S         7.52829904681093    4.26294462805201   10.92927167670339
N        14.75004121479979    1.51487282861176    8.39872102004536
H        14.79247714985667    2.03302311397750    7.53348530742799
N        12.54071590603099    3.48968325166743    8.10575073068668
N        13.41472025263533    3.45201909313843    7.06967908917840
N         7.10223152103897    1.51305030374531    7.30428130002800
H         7.05992864702566    2.03962780156498    8.16431384568151
N         9.31363407972021    3.49082957455902    7.57043212356725
N         8.43775077910962    3.47083208599122    8.60531660716456
C        13.75430589547655    1.74520163580739    9.31668736541661
C        13.94100338033690    0.89984847961432   10.40208771635903
H        13.32208008053069    0.85054195935639   11.27575894170985
C        15.09100523289129    0.13026859856285   10.13434487822882
C        15.77209181638828   -0.87453059323395   10.83308275736282
H        15.41624864649961   -1.20130694903963   11.79837865218282
C        16.89231344584289   -1.42507245084300   10.26215026307374
H        17.43359557355143   -2.20137583747016   10.78214553468529
C        17.35925635944227   -1.00176515884289    9.00894643350478
H        18.24605940501452   -1.46219259945322    8.59965146736336
C        16.71515885699424   -0.01765983404348    8.29471710397495
H        17.07641533316370    0.30943503405800    7.33077029770077
C        15.57642711258074    0.54688456308921    8.86186434727174
C        12.72740483897391    2.70404036878662    9.12314005060570
H        11.99987756165054    2.80653426431116    9.91797905020396
C        13.19056087491407    4.22548981656619    6.05410949626573
C        15.64014817867855    3.05137445926799    5.31944106660097
H        15.95229537265778    3.41984369727209    6.29586185052535
H        15.18464644206266    2.06428675731930    5.39350069441381
C        16.76691021251641    3.06407646124053    4.33990396143057
C        17.77350271539027    4.01698589035134    4.44127520812364
H        17.74260712595198    4.74154156122242    5.24196252227322
C        18.80703103587503    4.04325801999533    3.52295962201410
H        19.58431443507180    4.78764408414440    3.61076444891194
C        18.84387274481375    3.11939403000482    2.49211396889918
H        19.65015733324991    3.14117839135801    1.77432776613221
C        17.84249845537910    2.16961898733456    2.38256801032091
H        17.86550654262796    1.44878351206896    1.57880003634733
C        16.80783944393877    2.14328926569804    3.30015320974496
H        16.02417843141797    1.40493424415098    3.20988285488476
C         8.09686302363911    1.73276992615844    6.38238839905777
C         7.90643488987443    0.87753274712557    5.30540962443145
H         8.52378531417288    0.81887817057353    4.43120737315483
C         6.75494587674567    0.11333807263609    5.58203306645635
C         6.06988305203556   -0.89581491255942    4.89354612407241
H         6.42302860954555   -1.23226769365193    3.93059577041719
C         4.94929421685035   -1.43824677080372    5.47149246245989
H         4.40497191361227   -2.21766885283502    4.95942513940415
C         4.48603512837327   -1.00281054895891    6.72190150315146
H         3.59884895025671   -1.45729319906739    7.13694048090064
C         5.13404046852933   -0.01400430694070    7.42605079031181
H         4.77551460782202    0.32272836276158    8.38769010203557
C         6.27289537783106    0.54274910288580    6.85147427718694
C         9.12595492053869    2.69157301236860    6.56392007174940
H         9.85408595584529    2.78159104420840    5.76810314153566
C         8.66266787447146    4.25818440341140    9.60998096434997
C         6.20599914692747    3.10539782270649   10.35388758690910
H         5.90093845153456    3.45765238151553    9.36927313795260
H         6.65732254961493    2.11507757032664   10.30013928759136
C         5.07428979460525    3.14103512962245   11.32710908111218
C         5.02013306084919    2.23525020446519   12.37933257960715
H         5.79651057555747    1.49105995636442   12.48363279074562
C         3.98156650537854    2.28393290708855   13.29161200892517
H         3.94843446895427    1.57481474239709   14.10538688231950
C         2.98953897586531    3.24122100849833   13.16415091255807
H         2.18054214145522    3.28084845596053   13.87811163257161
C         3.03927646398385    4.14987163160222   12.12037229415738
H         2.26917578211724    4.89989844353129   12.01848986234170
C         4.07668457749640    4.10124851815978   11.20737851904758
H         4.11783131332374    4.81392496590839   10.39656509124460

