47
CSD_code = ELITID | q = 0 | S = 0 | Stoichiometry = C22H18N4NiS2 | MND = 4
Ni        2.62422980526055    5.80424379690489   10.65779442109810
S         0.93085576843645    6.16923329201162    9.26699429524246
S        -0.50377751363017    4.09896599051087    7.74230820357933
N         4.08700245152242    5.52188915660766   11.86456263008046
N         2.44846060659781    3.95899895722446   10.26434025361137
N         1.48235306351457    3.57248556026448    9.38346568760329
N         2.66671125095110    7.64301794759436   10.93664300712628
C         4.82287507737117    6.42357928786479   12.60532407229581
H         4.62384824923500    7.48132185808729   12.56621943623853
C         5.78587627455141    5.81096604531554   13.35153596710655
H         6.48685294279901    6.28603537167449   14.00964351775375
C         5.67513280986849    4.42052616033590   13.08313278711929
C         6.33994342289623    3.28083679684863   13.50899145832613
H         7.15474706839556    3.35347948189842   14.21497814447483
C         5.94447919353789    2.04423658321136   13.01550462439642
H         6.45973371704156    1.15358396824954   13.34457363997782
C         4.90432058972147    1.92608186027628   12.11047302147540
H         4.61960897345014    0.95045378236722   11.74395889402632
C         4.20424155576501    3.05081576713603   11.65314211196097
C         4.60127768016025    4.30631766075605   12.15115161199361
C         3.13953075719915    2.95087447111821   10.72763814667266
H         2.85961129111740    1.96566436067523   10.36064378679468
C         0.74862807058867    4.50190407455501    8.88006564811507
C        -0.28783886675113    2.26958211042611    7.65669594217248
H         0.76720380835574    2.10147577319374    7.44731254693925
H        -0.53607813154661    1.88118123538614    8.64306950590424
C        -1.17294804939017    1.71894874794293    6.59014299836912
C        -2.43850814165721    1.23607531231271    6.89930268016190
H        -2.77789683099518    1.24841147491347    7.92505810733607
C        -3.26190654447215    0.74135876481447    5.90395742047175
H        -4.24276094284980    0.36568882421940    6.15575312404120
C        -2.83160642740486    0.72960814451541    4.58818690805443
H        -3.47509877424763    0.34412118320391    3.81128111353573
C        -1.57450968462590    1.21606643006009    4.27095148562588
H        -1.23552687802445    1.21197595579755    3.24545678470860
C        -0.75069409008239    1.70929155308305    5.26578597950795
H         0.22829022543522    2.09307354565765    5.01738026454788
C         3.37028609558132    8.43432624166176   10.12701476891523
H         3.95283592690979    7.94651745476595    9.35328000955289
C         3.36951482502109    9.81196941371112   10.25355373643331
H         3.95301140940097   10.41396879601321    9.57536844457561
C         2.60884187622553   10.39419250814248   11.25520227489789
H         2.58390663295109   11.46622970354210   11.37745193557422
C         1.87959248736526    9.56733279732371   12.09519227165555
H         1.27317220400038    9.97393739295841   12.88874301701911
C         1.93432471424401    8.19856304911132   11.90192616251254
H         1.37595005020428    7.52309135574669   12.54064715042084

