21
CSD_code = ELIWEC | q = 0 | S = 0 | Stoichiometry = C7H2N3O8Re | MND = 6
Re        2.86047144845000    5.51196684386778    3.33565306961827
C         1.49489115069409    6.41474742684943    4.46273699320814
O         0.58365948040410    6.87997543954018    4.95983338480164
O         2.07337720790455    4.96793272176042    1.97572513077221
C         3.57946052594429    4.66901652759966    5.00142047228547
N         4.82197816865443    4.73210139131720    2.36560391911172
O         5.62641844285194    5.61032098870747    2.08871417378741
O         3.17444371539382    2.66065434440517    3.33966144657951
O         4.58466489622283    8.09755867566100    3.39027270850939
O         3.88815516524128    3.98867275862759    5.85676539381293
C         4.93914905844568    3.47700194994994    1.98957849093628
C         3.98582446521699    2.46875677029704    2.45350929471756
O         6.92176204908789    3.84059393401619    0.71672394983480
N         4.08071320724714    1.24442199942167    1.84185914512614
H         3.40607063739935    0.54151515822379    2.12681382640353
N         5.94461415861324    1.81007604432138    0.58746564354013
H         6.65787705363641    1.53316892473896   -0.08003053004227
C         6.03649164511949    3.10695462039697    1.06212814255180
C         5.01265352515456    0.84545826004413    0.90018858042527
C         4.02168881980462    7.12533146492509    3.55091495726289
O         5.01683517851360   -0.25132624466965    0.41636180675799

