59
CSD_code = ELOCEO | q = 0 | S = 0 | Stoichiometry = C24H29Cl2N2PPd | MND = 4
Pd        6.56793289319563    0.47261246196856    9.09528617760825
P         5.28678436996451    2.10109073685899    9.99575717862374
Cl        7.29119171940561   -1.43959809782098    8.10397676768947
Cl        6.37474443100580   -0.62631308673383   11.04663971656782
N         7.10273826612986    1.61385781352965    7.37006984076500
C         4.61454519804105    3.23079332087178    8.71074217054809
C         8.55116845612153    1.39073228982931    7.30244518564353
H         9.01397576156869    1.66595243669294    8.25915045163989
H         9.00067600523030    1.99169726674074    6.50006759286318
H         8.74105621541688    0.33281187386970    7.11025570419127
C         5.63558430876036    3.14028848676234   11.43783919507718
C         5.41631836038182    3.46403744392209    7.58360387706039
C         2.82333094667538    4.44173222214415    7.64389348426894
H         1.81990044957624    4.83370998858263    7.69871459007825
C         6.86763338210832    3.05454596667069    7.55458523271506
H         7.34228736980387    3.35458861994941    8.49927665679218
H         7.36110525536222    3.60300581890164    6.73585001983135
C         3.32064301124094    3.76266605524776    8.75001182022463
N         1.56529109554914    4.79572681636177   10.11090995740527
C         5.93791914824824    5.27749618295679   12.48855384132488
H         5.91629544633942    6.35653183187533   12.43664287896757
C         6.01817916597372    2.50477975652673   12.61870981366002
H         6.07843754784295    1.42390327114246   12.63785428608000
C         3.85297913820918    1.05164911607215   10.42040792114818
C         2.44530121213779    3.64846610693560    9.96674612930692
H         1.81749583270727    2.75735001156018    9.86124813976430
H         3.07597232472725    3.51497960158059   10.86241882328058
C         6.46787867208161    1.13478895293745    6.14547310427255
H         5.39383328044183    1.32473385071141    6.18867011553548
H         6.63786590337117    0.05986439312327    6.06202948641723
H         6.88337243237829    1.63876786657012    5.26341010187458
C         3.48258822290114    0.14466848534665    9.42521530824877
H         4.01390477130092    0.14416500106948    8.46607044699293
C         2.20346679166421    0.09924448442047   11.87975145689766
H         1.71695055724759    0.06882869363604   12.84359296884607
C         4.89917468939301    4.15651616931231    6.49808278734635
H         5.52147505519476    4.33452060121818    5.63262626606626
C         6.28402741829963    4.64515919533777   13.67199413629186
H         6.52729131392998    5.23320185515811   14.54456794710401
C         6.33196475776754    3.26050237234895   13.73294436396517
H         6.62033619423756    2.76947610930269   14.65036031312847
C         5.62025992235924    4.53032929015697   11.36860601062246
H         5.35557601531395    5.02105129401685   10.44157774896267
C         3.21532224848926    1.01645123995606   11.65322787659417
H         3.51541043789166    1.69279946998447   12.44158388108774
C         3.59697448625270    4.62401493823096    6.51556314655005
H         3.19745198520640    5.14516082235913    5.65897418731560
C         0.49864667633233    4.52428242347569   11.05123019990749
H        -0.15856824294865    5.39116510839122   11.09919430983428
H         0.86959166246684    4.30936721514536   12.06545316525829
H        -0.07933975139747    3.66916703137521   10.70387800817416
C         1.82436502819703   -0.78428709054970   10.88428358218040
H         1.04037058528456   -1.50312650944711   11.06978394656538
C         2.46635246967287   -0.76222815154679    9.65517093654387
H         2.18643462464786   -1.46551522538030    8.88510132833769
C         2.30359968334162    5.98245776857250   10.49137969563387
H         1.62131846561282    6.83037597934425   10.52434078061871
H         3.07062113844601    6.18440046059471    9.74550759421574
H         2.78659519288605    5.87940159183412   11.47609734549634

