50
CSD_code = ELOJIA | q = 0 | S = 0 | Stoichiometry = C19H24Cl2N4Pd | MND = 4
Pd        6.07283886235820    2.52749507059674    9.10490699595806
Cl        4.44240436667742    1.70925878002087   10.34456841712751
Cl        6.79302414796775    3.77252949538659   10.77695832356744
N         5.42645245334601    1.40277660750754    7.48628062694844
N         6.28567473222138    1.01435938075930    6.53400194941585
N         7.57025542705429    3.28176361701889    7.88028768634163
N         8.04882662229227    2.55807790003454    6.85879262546446
C         4.21198788612829    1.11637792188160    7.06379804004196
H         3.35164024757010    1.32765169131630    7.67076695638698
C         4.27897073785924    0.51196447996704    5.78862730167799
C         5.62681720909766    0.46861828776296    5.48525178386378
H         6.13553852518166    0.08960118208567    4.62250245746036
C         7.69871094983460    1.16620764847078    6.75833988102653
H         7.94830249248955    0.67816894184873    7.72236239538101
H         8.25549324951501    0.70257843478903    5.94066276002092
C         8.86742853546381    3.30494541300266    6.08215399611667
H         9.35697332413499    2.90806636249539    5.21634825795498
C         8.91228979820346    4.56860000608294    6.64107211201986
C         8.07001817541458    4.49611276340991    7.77269616221979
H         7.83448204340482    5.25641666648307    8.49356779295126
C         3.20089161799436    0.04951473238212    5.01352525552715
C         2.26332147926924   -0.34414913837942    4.37120123853575
C         1.12922896918419   -0.82676024067568    3.59933903171795
C         0.50863539061802   -2.02095204066230    4.33506055280042
H         1.23538513429093   -2.82345532143846    4.44166662759244
H        -0.34650826929662   -2.39671978554804    3.77759074954676
H         0.17578159283122   -1.72558144751740    5.32745471210264
C         0.10204661119359    0.30509143832659    3.47331921811737
H        -0.23587019181447    0.62311983591278    4.45700875347368
H        -0.75871908571053   -0.03583927082193    2.90232788499653
H         0.53916680895123    1.16274315069692    2.96638030642175
C         1.61574277926537   -1.25729532784215    2.21045981716885
H         2.07056644920186   -0.41818463162995    1.68813901569072
H         0.77832804028078   -1.62187795970332    1.61972487800270
H         2.35409399087032   -2.05202184880834    2.29436161149659
C         9.64402160582192    5.68442927290344    6.19749568940328
C        10.27322451622236    6.64455494909662    5.83869289409493
C        11.03624417574926    7.80584236015049    5.40926756506585
C        12.42517878087983    7.74812494136853    6.05769160730086
H        12.33941240677040    7.75255538243061    7.14197868794865
H        13.01411619516794    8.60974892104477    5.75096770820950
H        12.94957712960842    6.84308814518862    5.75826996244969
C        10.29864354884223    9.07343344488189    5.85662993887392
H         9.30540640157661    9.11302262730939    5.41467219927103
H        10.85372692589480    9.95598997644599    5.54633495668754
H        10.19349665684964    9.09042888145210    6.93907269266267
C        11.16650974184120    7.78051221241883    3.88150942784780
H        11.68067653428881    6.87823012125523    3.55689041435003
H        11.73349414454586    8.64474739396572    3.54260262181233
H        10.18415013291848    7.80408857426634    3.41451745942888

