52
CSD_code = ELOKIA | q = 0 | S = 0 | Stoichiometry = C27H22AsClNi | MND = 7
Ni        2.02408367785239    6.30579119749375    6.92293380208432
As        3.44704309760575    7.99439783058163    7.29894180156253
Cl        2.39255991851296    5.58905901916162    8.82783159292668
C         1.38388356912965    6.68752710697820    5.01492058710782
H         1.26872254976210    7.63223595946410    4.49833424464108
C         0.36697993397713    6.00318136344670    5.71244179543139
H        -0.62926871981491    6.37171189576523    5.90781086932469
C         0.88782924729643    4.76478095818439    6.13782023408077
H         0.33426354146651    3.99233753758085    6.65287673260933
C         2.15100663547430    4.54262193790250    5.45056534787112
C         2.45925058457724    5.74730789415674    4.74339323731390
C         3.61351235074749    5.83605015430227    3.97220466814335
H         3.85021822861854    6.74731838435116    3.43857459388626
C         4.43899556119653    4.72711644461885    3.89552924550383
H         5.33366683314005    4.77153182955263    3.29152769423715
C         4.13675493762234    3.55167166044872    4.57855941940878
H         4.80281832239376    2.70570490834611    4.49171082248177
C         3.00138447551108    3.44492809517849    5.36373221192248
H         2.77893317144915    2.53265409982560    5.89796632886015
C         3.12950894132647    9.32626752411673    8.68248531480085
C         2.35190771568023    8.97903618671206    9.78101247427344
H         1.92633362218930    7.98215733013104    9.83131870147884
C         2.13482326514357    9.89447587205305   10.79678697575056
H         1.53177041433580    9.61880952636366   11.64934652406761
C         2.68819913625612   11.16167588770170   10.71883223130268
H         2.51801867119049   11.87664641476193   11.51034567637252
C         3.45896727144172   11.51535434452280    9.62314653666738
H         3.88928231967214   12.50466392168705    9.56041314485637
C         3.67978463005338   10.60255995654927    8.60635290323197
H         4.27662228669028   10.88074439928440    7.74248650892746
C         3.89877071224189    9.13304853215701    5.77785251125369
C         5.06668128446484    8.96749676864910    5.04464198096861
H         5.79962409600245    8.23557880000332    5.36840285139940
C         5.28998166151048    9.72940540319836    3.90924254143902
H         6.20125724701866    9.59778029438087    3.34347484239190
C         4.34571206519237   10.65342643212370    3.49478102455835
H         4.52021184115127   11.24338474236578    2.60715695731942
C         3.17194641235174   10.81659812790269    4.21461311782126
H         2.43284684957001   11.53405677537763    3.88809100935740
C         2.94760045147815   10.05370114560344    5.34561446894477
H         2.02902851016388   10.16542073157243    5.91801639809097
C         5.19216329932037    7.28932073383893    7.76867296836373
C         6.14951791037710    8.04695940468999    8.43134929564259
H         5.91417105577846    9.06048975024208    8.73923893040679
C         7.39133416002440    7.50089309762822    8.70764561675078
H         8.13350055760860    8.08800971302363    9.22934998933243
C         7.68186981807763    6.20266817043031    8.32051229337354
H         8.65149134567724    5.78008025040266    8.53959159085732
C         6.72896242359752    5.44365882241612    7.66086461683912
H         6.95192557192933    4.42924508091218    7.36441498952428
C         5.48630019134266    5.98612178050042    7.38786952056161
H         4.72074634464102    5.39393580139314    6.88970026371553

