36
CSD_code = ELOMUP | q = 0 | S = 0 | Stoichiometry = C11H18MoN2O4 | MND = 6
Mo        2.71325385078286    4.04343032749922    9.09955870506327
N         4.43643379799569    5.41601184310900    9.54331697346849
N         2.86075484905449    4.82876247075508   11.23594555967074
O         0.85752296363736    6.32836750760894    8.15762280141695
O         4.33147412899077    1.45861958588071    9.61016563697926
O         3.05302079899124    3.40679457906175    6.10989897186963
O         0.19787050214983    2.27159374304633    9.04854957579625
C         1.57512480489106    5.53959534981821    8.57209829138476
C         3.77920516304318    2.45120310586516    9.48577635027281
C         2.91632445996562    3.63124692701203    7.22397683752565
C         1.13726489776574    2.92698958235959    9.05843804437131
C         5.75557714768080    4.80212370236355    9.64278004353023
H         6.50584409626957    5.52692490287955    9.99448006773834
H         6.05612729549585    4.43626894846920    8.66051041682660
H         5.74278195820492    3.95592435782463   10.32768390072829
C         4.55200029652052    6.56593740462712    8.65404967610234
H         3.59416244751978    7.07529373698271    8.55781309872864
H         4.84868767856863    6.22084711058296    7.66332665326750
H         5.30342698201002    7.28246971859190    9.01879074751789
C         3.90073094441666    5.78751804092337   10.85760118125127
H         3.45255689923891    6.78634436213020   10.78189729130337
H         4.70564878815871    5.83496583474068   11.61506671231867
C         3.35210989199936    3.86385832003134   12.22657793187196
H         3.60524020683167    4.37338226450275   13.16928655188411
H         4.27056523846164    3.41973538708313   11.83450102971526
C         2.36160085878526    2.73952227550714   12.49509856498946
H         1.52689862700158    3.07038035133718   13.10744474464598
H         2.86502190367483    1.93170697629480   13.02049125308454
H         1.97876934277360    2.35271102577985   11.55024486273423
C         1.63360781795474    5.48965774650142   11.70029373491935
H         0.84521138584811    4.73496576413724   11.74796039673539
H         1.33647419300118    6.21401557713827   10.93704412019467
C         1.73611770397096    6.21292052207969   13.04622635273999
H         1.82959444468744    5.51750687313218   13.87611668764552
H         0.82963663217596    6.79232667946324   13.20149981552283
H         2.58185700148129    6.89827709487946   13.06726641618438

