43
CSD_code = ELOMEX | q = 1 | S = 0 | Stoichiometry = C18H18N6Re(1+) | MND = 6
Re        1.78262073003487    2.36348125793418    9.36599798938042
N         0.97248698233652    0.46424490425501    9.28858108204279
H         0.69202825579275   -0.13760995968327   10.06085060500818
N         2.02274523129190    1.80618741209317    7.45689898820652
H         2.52326318617125    2.30931019227491    6.72342138655442
N         0.15481343664579    3.45207299858949    8.94082880702909
H        -0.23266779738917    3.65384127489022    8.01853325640573
N         0.96981012260175    2.79339689169163   11.21212600760727
H         1.20904174289115    2.39525931122118   12.11860722012339
N         3.00256356128191    3.93430997708166    9.13058950036447
H         2.75653828284265    4.86678202401363    8.79643492308842
N         3.58159058523416    1.72425534903250   10.15123631249713
H         3.77177629999087    0.89484893182618   10.71081746884353
C         0.84469354884405   -0.08850407437071    8.09095040962626
C         1.43212451235337    0.69516080210490    7.02790284064556
C         1.40281306887623    0.20564522683547    5.70281819765897
H         1.83975727011343    0.79707308157980    4.91189630943656
C         0.82060626992210   -1.00292167468352    5.44586037328086
H         0.78905419516789   -1.38449864068668    4.43768274619889
C         0.25807099842996   -1.77520103537774    6.48616115095847
H        -0.18697026836349   -2.72745988186026    6.24297845360153
C         0.27125724838595   -1.34203969771798    7.78235554872555
H        -0.16147290091498   -1.93435483531228    8.57460844584546
C        -0.49536907671689    4.05404054574317    9.93203256032222
C        -0.03652450271665    3.65543257156178   11.24343947639394
C        -0.70972307336646    4.14557069031976   12.38439133169427
H        -0.37516371987396    3.84360383246014   13.36553348812872
C        -1.75964884716639    5.00646280696007   12.22794050159673
H        -2.27151514836658    5.39211375752032   13.09583049168195
C        -2.19903971038125    5.40628589581733   10.94653275840536
H        -3.03229153953877    6.08663201992478   10.87007694815669
C        -1.58966687906071    4.94018002949934    9.81640266191483
H        -1.92602846084155    5.23830941182510    8.83448095621334
C         4.30460810919546    3.77567627480704    9.34833344824754
C         4.63331793156683    2.50764085237323    9.95962680125328
C         5.97046549534628    2.25475722002686   10.33808910344132
H         6.21836118179233    1.31269632841972   10.80370631229442
C         6.92942538677448    3.19671995420334   10.09096918426299
H         7.95439283881567    3.00462226630618   10.36741917540946
C         6.61040091536627    4.42907208925711    9.47918089888082
H         7.39904737347766    5.14322380785468    9.30305629814889
C         5.32641082495006    4.72385578200714    9.11820676277731
H         5.07659633820301    5.66732402738131    8.65591281764571

