26
CSD_code = ELOMAV | q = 0 | S = 0 | Stoichiometry = C12H8FeO3SSe | MND = 8
Fe        0.93092376909481    0.86218224874103    4.36728579373572
Se        2.62259843907682   -0.62370461998858    3.87971080960989
S         6.00126326819342    0.85448688079138    1.26230417948385
O         3.36912948185531    1.63166649301839    2.59958053463887
O         2.60581378828513    3.13958368067031    4.96944707509556
O         0.63677971770802    1.99089567173067    1.72294541065611
C         3.74430126237180    0.49400750221092    2.78767776023004
C         4.94789182508881   -0.09353469947692    2.26797397044519
C         5.43642171373962   -1.36562990071255    2.44630811331844
H         4.91805462685529   -2.09913041527285    3.04202594882808
C         6.65017179397254   -1.57805594732736    1.77878978420459
H         7.19074298790352   -2.50711938136511    1.79582822773799
C         7.07161512705896   -0.47047269911307    1.10131336311418
H         7.96052040729663   -0.36079352412907    0.51151965286188
C        -0.10020268917674    0.95326751041362    6.37412852466078
H         0.22726872271846    1.49309259973118    7.24710343276169
C         0.15865864445175   -0.39536499531164    6.08854645029423
H         0.71624042863262   -1.08318873300863    6.70325887864802
C        -0.56743708628530   -0.74715711657337    4.90857314174521
H        -0.64598162859674   -1.74147553270371    4.50055727643800
C        -1.27139903927439    0.38719766826059    4.47772734941403
H        -1.98130095352595    0.42642412560238    3.66802917108819
C        -0.94835206182599    1.46129266755326    5.35190906739293
H        -1.41757434460125    2.43256361417063    5.35170961907611
C         2.00115342411912    2.21320296189227    4.69655842140788
C         0.82579837483952    1.52286394015376    2.74448804309523

