70
CSD_code = ELOSUT | q = 0 | S = 0 | Stoichiometry = C31H34Cl2P2Pd | MND = 4
Pd        4.19165498472628    8.19518783319593    1.07610338317317
Cl        5.74433142003217    9.63981597694908    1.91671730029045
Cl        5.75230322190354    7.16808635994220   -0.20807982797117
P         2.62050177766608    9.16193023109227    2.34386642011169
P         2.73600203127121    6.92756338081987   -0.07676308694141
C         1.09992217345036    8.15375956113618    2.63468211180238
H         1.41220524517318    7.28110586369979    3.21987041776403
H         0.41550944822691    8.73624221467373    3.25915102658154
C         0.41820059934026    7.70144769605921    1.34112724335918
H         0.39705414498307    8.52800623308635    0.62262817859031
H        -0.61797366249400    7.42814770354735    1.56421111853237
C         1.10841098557484    6.49896902377354    0.70021026811828
H         0.47037396697635    6.07147051451137   -0.07895660498305
H         1.28009642545830    5.72637058337136    1.45523730794221
C         3.17378697138908    5.39653113294544   -0.94008407894013
C         3.10915223519567    4.17440924285314   -0.27963488235327
H         2.76344152752566    4.12839779588565    0.74441433521711
C         3.50742970793205    3.01068003666406   -0.91940643439681
C         3.98208992101714    3.09121714747857   -2.22299217352686
H         4.29980498257604    2.18669071930264   -2.72312260902660
C         4.07726853465799    4.30547245787117   -2.88802780453489
C         3.67083758922940    5.46047360255143   -2.23504182637486
H         3.75851446277597    6.41843288893882   -2.72833013246201
C         3.46129050052023    1.69207962702177   -0.20802598391744
H         2.70527911786363    1.69554394415364    0.57378996579591
H         4.42693288762045    1.49119429300607    0.25643690872066
H         3.24866307593029    0.88308627489601   -0.90326307511787
C         4.63516015145060    4.38740413496815   -4.27563106393850
H         4.03104557078940    5.04708244949155   -4.89560486199851
H         4.68024453744262    3.40534497047055   -4.73981174235411
H         5.64378342264156    4.79803658823520   -4.23853248594720
C         2.20947418923702    8.06657383760332   -1.39922793029011
C         2.79851223821486    9.32666924832125   -1.45547211980775
H         3.61551291455200    9.58490226635762   -0.76484242563231
C         2.39048001854314   10.25686161770098   -2.40181044235269
C         1.39532876729317    9.89807081302453   -3.30179355761397
H         1.07220768388764   10.61436451354071   -4.04438305631896
C         0.81612779122463    8.63476129815467   -3.28281646671383
C         1.22652105443493    7.72282713179357   -2.32119667247849
H         0.79161398761794    6.73253876304316   -2.30178728313632
C         3.00106498437568   11.62315430980754   -2.42525301172238
H         2.99899683411656   12.03631553297914   -3.43101808451382
H         4.02189392735955   11.59224010107410   -2.05242879665192
H         2.42925120712960   12.29115712192716   -1.77956164457323
C        -0.25172382522872    8.26809136516001   -4.26877755616734
H        -0.15373421934360    8.85031517863320   -5.18154473336701
H        -1.23586463158730    8.46890731062427   -3.84401114618229
H        -0.20234888242456    7.21024954907373   -4.51653227099107
C         2.03256086400885   10.80952567620960    1.85443886323527
C         3.02752693941512   11.71760262025250    1.49028483611101
H         4.06542501490490   11.40865720168209    1.54788803756985
C         2.68842204554115   12.98913952328764    1.06864628109337
H         3.46365998894964   13.68895203883450    0.79408845703485
C         1.35536516567672   13.36247662096735    0.99190284714954
H         1.08747726465908   14.35368167004448    0.65607994776002
C         0.36469432469832   12.46126838233856    1.34357547314749
H        -0.67481024467098   12.74995451724837    1.28257244607274
C         0.69632701884869   11.18803831717185    1.77451471020660
H        -0.09226228045096   10.50209550498769    2.04554488179701
C         3.22693072595762    9.31064852350761    4.04502628945594
C         2.86323848120641   10.32775630109727    4.91605397745381
H         2.19399609299240   11.10937412591576    4.58296762408451
C         3.38071833390690   10.34115126094961    6.20018897895431
H         3.11032171621990   11.13638073974180    6.87947999164406
C         4.24997635738228    9.34472631752989    6.61151343466118
H         4.65679675480575    9.36613881184890    7.61176685306515
C         4.61315791135084    8.32728539079611    5.74123293661689
H         5.30206725274892    7.56057700281605    6.06328062267122
C         4.10535378256671    8.31057633240461    4.45727923086055
H         4.40802449103631    7.53751267898595    3.74139316663693

