58
CSD_code = ELOTOO | q = 0 | S = 0 | Stoichiometry = C27H20Cl2F6P2Pd | MND = 4
Pd        4.39511285159224   14.46714036402606    0.43295047996532
P         5.50599471695600   13.08950870941908   -0.89228234742608
P         2.86702800203230   14.87269727251238   -1.13015281948977
Cl        3.14953233786046   15.72012806457635    1.85208814127638
Cl        6.04919453067741   14.06779039770310    1.97538590343733
F         3.95534263277471   11.75583498622391    0.94584668419177
F         7.03496271779154    8.73457539123311    2.81599289080605
F         8.38181312362561   11.59294119019557   -0.62908154225987
F         6.54690008969019   15.77973328657826   -0.75082521504507
F        10.05452510189513   15.48148639494717   -3.85300949972410
F         7.26668251686647   11.78947255835907   -3.11733899793108
C         4.40738703273555   12.26803017985322   -2.13097117495462
H         4.90097226928265   11.39683202718038   -2.56888053216402
H         3.55202310513400   11.91676129197936   -1.53997036084963
C         3.89917505175169   13.18858616390159   -3.24780540460703
H         3.00493870302305   12.72248308525135   -3.66912389796823
H         4.64688320610191   13.23273056427319   -4.04495957325912
C         3.56478478776777   14.62761293451469   -2.83440858023298
H         2.88582765198379   15.07119613169824   -3.56929754751859
H         4.47813225951976   15.23868848805056   -2.83160544474323
C         2.38309499785167   16.61460317000378   -1.23099220642928
C         3.37151509446149   17.53147777336335   -0.87840249171702
H         4.33634837545169   17.16662394186623   -0.52715562073046
C         3.10105436981633   18.88509769749934   -0.92718058029926
H         3.86044342662857   19.59908451954517   -0.64557696943258
C         1.84492164764486   19.32459031413274   -1.31756858374589
H         1.62925952474484   20.38246585588005   -1.34422430878647
C         0.85896231591813   18.41220340787472   -1.65375935071775
H        -0.12322699200544   18.75873501595403   -1.94023736508933
C         1.12246523370265   17.05364203143695   -1.61216298167301
H         0.34778779923468   16.33953172497271   -1.85343867262639
C         1.37024832454509   13.86100811414178   -1.05292595081614
C         0.50655323528055   13.66656741846584   -2.12688140878279
H         0.70243388062769   14.14085635510466   -3.07868311617627
C        -0.60688713035245   12.86068938884688   -1.97068928094054
H        -1.28116281261095   12.70943794905749   -2.80122937091306
C        -0.85918668297370   12.24822995920426   -0.75286597598649
H        -1.73175019199080   11.62211412695328   -0.63917686602614
C         0.00417664834811   12.43474914121881    0.31523768659747
H        -0.19403869805982   11.95450132648406    1.26142615531638
C         1.12113397592284   13.23688936914840    0.16767093432444
H         1.81038910973404   13.39886680253361    0.99468442974545
C         6.12240699923628   11.66668055475408    0.06348903033030
C         7.40425909448786   11.14098714174040    0.16884458022825
C         7.72389941262593   10.14844329486206    1.07980657156143
H         8.72786440452897    9.76002181507663    1.13288149230489
C         6.73725059951571    9.69512298672586    1.93482096495462
C         5.44812376948278   10.20759483381579    1.91032385139055
H         4.69825561670460    9.87758183960781    2.60982736810282
C         5.18500329967046   11.18915921273591    0.98344820458000
C         6.90766457751947   13.73729922175497   -1.85819493951631
C         7.62685413343499   13.04679419000323   -2.82861651391102
C         8.68663290596392   13.61165353642915   -3.51047757892766
H         9.23498016204323   13.04937094644886   -4.24834642495360
C         9.02985965207280   14.91914352134721   -3.20573463949440
C         8.33416573832662   15.67084556180738   -2.27289803752394
H         8.60761737236225   16.69117584648817   -2.05990956584168
C         7.28071412104047   15.05923061023723   -1.62118362988252

