97
CSD_code = ELUDEW | q = 0 | S = 0 | Stoichiometry = C30H44B20P2Pt | MND = 4
Pt       -1.33551972794106    5.15459544458023   10.12790068997168
P        -2.43616660353878    6.13406844216860    8.26564419680843
P        -3.43540368986662    4.08571563140683   10.42328185519417
B        -0.11857422317687    5.68288841384117   13.03679174623869
H        -0.44396213178242    6.78424450021090   12.81731024331709
B         1.44005222027229    5.22387209473702   13.68414442697965
H         2.24330503169998    6.04897807254056   13.91317800543139
B         1.91813282588198    3.69577829669014   12.96037475165547
H         3.04444976248418    3.49031674883937   12.70044675573815
B         0.66260500282794    3.18948621315821   11.84912913945728
H         0.87747303488999    2.62988700343989   10.84693500425678
B        -0.83606086186638    2.97693480212217   12.69151219015692
H        -1.65486848365596    2.27676558236156   12.20292970954352
B         0.70826307568045    2.45316918263192   13.42878894965533
H         0.99775828567876    1.31660615656909   13.53566669762019
B         1.19886656768076    3.70677160624576   14.58556498409535
H         1.83862518705944    3.45005549835295   15.54041428694062
B        -0.06685318581981    4.94611653618008   14.61825181120559
H        -0.33131053220488    5.58488339256224   15.57158400940185
B        -1.30489133228578    4.48079431991234   13.41988967057111
H        -2.44080494071001    4.80287944611792   13.43577526172294
B        -0.52492909005559    3.24290738388141   14.42385765997525
H        -1.12660948178989    2.66039045462833   15.25271554116027
B         1.73768933775414    4.75461202809494    9.33210362876169
H         1.42170007213878    3.63313685670823    9.23596257533831
B         3.17367355053234    5.30857592553675   10.16345245556925
H         3.88547099292462    4.53156531224178   10.68126237383053
B         2.81336634699308    6.84065715913315   10.94468537946044
H         3.28123575816383    7.09642997946025   11.99065599770808
B         1.14396121894927    7.25334633901650   10.61398702597923
H         0.45051882577711    7.79815980410761   11.37960763035393
B         0.89108843213824    7.41179345320936    8.90785821298995
H        -0.03007277731401    8.05629498836592    8.54025665469776
B         1.25841413297258    5.90509537151182    8.12880237625842
H         0.59416670652772    5.52828289343475    7.22773998455748
B         2.98478296125418    5.53246728900112    8.39224341797608
H         3.61326765387391    4.90533335718200    7.61859340908448
B         3.66503853750815    6.83337954699461    9.38471019249564
H         4.79767951701691    7.14571749503468    9.30391146381676
B         2.38659673181823    8.03127357305192    9.66866055164354
H         2.58955873600224    9.18334653269210    9.80461607197974
B         2.46632165286420    7.20473579202758    8.10476918091112
H         2.72858371629145    7.77668108334916    7.10852274724929
C        -0.48665860569058    4.47037465316600   11.87903381883885
C         1.06545414289324    4.86944285183681   12.04309304210720
C         0.53513822377809    5.91744145559364    9.71657300609892
C         1.62764556084205    5.60188825961798   10.85667262020259
C        -4.00443449079544    5.17418014812786    7.94762608748289
H        -4.66452545807064    5.74083811680148    7.28437252657237
H        -3.74495564533931    4.23566368726716    7.44918550560995
C        -4.67730675394853    4.87915002968388    9.27868212142577
H        -5.53933917064476    4.21811732658810    9.15009809699478
H        -5.02819878436553    5.81114715078732    9.73024269418874
C        -1.97464211811612    6.54964359545765    6.55282237169707
C        -1.82570194680436    5.51154762193153    5.63634479311774
H        -2.02762083049005    4.49297296481227    5.93895456671780
C        -1.40559060843197    5.77139959550138    4.34611758462366
H        -1.29769760257484    4.95984716532974    3.64182615993839
C        -1.11223275926483    7.06945989003975    3.96082583812750
H        -0.77887924288487    7.27199246860823    2.95430196150422
C        -1.23492554702806    8.10323434684356    4.87332479716617
H        -0.99374982974266    9.11422472537610    4.58141394266943
C        -1.65794068989338    7.84654965726566    6.16474554506183
H        -1.73855494232404    8.65731499135648    6.87342828522083
C        -3.20334089866045    7.66224890309751    8.90104185210749
C        -2.94326063637001    8.01709852552006   10.22017146962498
H        -2.25804965052478    7.41243541806465   10.80834837616250
C        -3.54551050650376    9.12885772481789   10.78116007410453
H        -3.33710666077067    9.39562561394092   11.80627904366782
C        -4.41451437755396    9.89654471348267   10.02390787116291
H        -4.88474578214902   10.76718649503779   10.45602976819477
C        -4.68159278126396    9.54777486891832    8.70892583042062
H        -5.36004383039154   10.14646654803394    8.11889156070351
C        -4.08308553401884    8.43432706850413    8.14842361473332
H        -4.29385109513736    8.16751610513929    7.12171713352079
C        -4.50208298377844    3.77279651042395   11.86672970991329
C        -5.16149772231392    4.85707655232611   12.44150904677897
H        -5.06521850851095    5.84093874882074   12.00184749854276
C        -5.92225599822037    4.68964504850686   13.58234621630757
H        -6.43244328725452    5.53615083444323   14.01772062093799
C        -6.01908227447738    3.44017692955454   14.17344119666700
H        -6.60954748712097    3.31004591112293   15.06771328392183
C        -5.34395364516590    2.36389864401228   13.62361470278491
H        -5.40267121344185    1.39250784315778   14.09100071935535
C        -4.58320271336409    2.52787987308475   12.48014807946620
H        -4.04674019109374    1.68636634746894   12.06809874758969
C        -3.32015738282172    2.47247058480681    9.58162602107912
C        -4.41036579977145    1.62146062295705    9.42845141251249
H        -5.36555306517720    1.88262911074149    9.86345879631906
C        -4.27158186208826    0.43716952120024    8.72819738880728
H        -5.11938206817075   -0.22296618397964    8.61724246609145
C        -3.04959099072829    0.09574095817966    8.16959941982849
H        -2.94682524314075   -0.83130883095616    7.62570912104212
C        -1.96284432077530    0.94286042199108    8.30966199649350
H        -1.01073012753509    0.68128257169647    7.87335844946258
C        -2.09969261204535    2.12618195766121    9.01269704020851
H        -1.25118046441530    2.79479333282175    9.12855718833676

