157
CSD_code = ELUNUV | q = 0 | S = 0 | Stoichiometry = C70H70N4O12Zn | MND = 4
Zn       -1.61889070237676   22.70917290790510    4.18677763905935
C        -1.61892608815146   26.02637489851251    4.18683089474302
C        -1.61904764343162   15.15463893463885    4.18694351784491
H        -1.61908960052266   14.07764274068489    4.18696144450334
O         2.02816303185146   22.18122550517379    6.68437913967743
O        -5.32457800562388   23.24133488327631    6.59251431323251
C        -2.09474364801032   17.23260111377236    3.07409825801948
H        -2.45259587738527   17.80510985779182    2.23487708217469
O        -0.01394208591650   21.51043130147963    5.98434624336322
O        -2.55011839873747   15.06817452820982    2.05073402277704
C        -5.74983106653346   24.56473789955004    6.99910700007358
N        -0.51101638898847   24.05639548387189    5.08594771596223
C         0.58017802382545   23.76663329647922    5.78308592826360
N        -2.74794280560163   21.36295680692117    5.05879445105404
C        -1.61922455691456   30.26491044430627    4.18689905501355
H        -1.61934814677292   31.34190532845397    4.18688443824288
O        -2.67194942620807   30.35113138049439    6.26592673086087
C         1.31682559691319   24.95191689983806    6.08286224458461
C         2.44816592505587   20.85825598425451    7.09769866252797
C         2.23636552271725   27.53053000088860    6.30353580205944
H         2.61589517458097   28.53777370527954    6.39810229980576
C        -2.15530365895981   28.18685294495681    5.27181423363416
H        -2.55801434468921   27.61436748050818    6.09046321535866
C         2.51418494169783   25.17974507377199    6.75583119908189
H         3.06796323689825   24.35353146854390    7.17266673101078
C        -0.58660436672660   25.39918024392308    4.89155358443813
C        -2.16218103851118   29.57845844153144    5.26811237563567
C        -5.54900429010904   17.89478609639136    6.16515834253283
H        -5.93777541356706   16.88924785595947    6.23770976051287
C        -1.61898343151305   27.50724220803939    4.18686908789167
C        -4.60839305359950   20.46981867977741    5.99572096783551
C         2.96426158460682   26.47697756119564    6.85948508845585
H         3.89136733472685   26.68772701365248    7.37271339398264
O        -3.26344536112883   23.90747209245940    5.94625761203709
C         0.82098128804505   22.37935189210749    6.15178561506467
C         1.04622057542713   27.31997994279475    5.63734446906827
H         0.51545113865600   28.15929251679571    5.22005024789405
C         0.56381933438889   26.01758844215362    5.52092120298003
C        -2.09996671945325   15.84101138217219    3.07668325799842
C        -7.18530592046473   24.35893474720624    7.48559466808739
H        -7.20157747383360   23.65219004576790    8.31136802472564
H        -7.79725878697951   23.96411564374026    6.67885144826893
H        -7.60544538371279   25.30293585494720    7.81984377783463
C        -4.86643135026727   25.07672149299429    8.13731791110422
H        -3.84394265815406   25.20217833626706    7.79155363139772
H        -4.87172857843020   24.36703332126863    8.96205370263399
H        -5.24351905587644   26.03249734318068    8.49182281493041
C        -3.84310899947838   19.40405598852796    5.45071211174351
C        -2.67108806698240   20.02079582415882    4.86108897738343
C        -4.33684480240169   18.10374360843725    5.53940954325530
H        -3.79860565573563   17.26516050356822    5.13015652564942
C        -6.28789629405288   18.94795453219265    6.70721775232899
H        -7.23221045955572   18.73847508863735    7.18860288365387
C        -5.82769852945086   20.24341390344847    6.62858231853365
H        -6.39028373317528   21.06949272951416    7.03376097829191
C        -4.10473915848920   23.04054960683765    6.09076590904923
C         3.87085527636364   21.06757637975066    7.61899970607654
H         4.50027954681970   21.46759592403884    6.82842239225254
H         4.28637861840554   20.12378935244713    7.95956863039393
H         3.86498862755522   21.77121388570789    8.44755445416653
C        -1.61895105656122   17.91233311974454    4.18691684147831
C        -3.04703876560974   15.71055180296764    0.90153285602575
H        -3.34732666552230   14.91182074950858    0.22503224732690
H        -2.27907866178707   16.32405526833676    0.41973048873211
H        -3.91600919880710   16.33453823914511    1.13450190708832
C        -3.85838546957436   21.65360070910340    5.72457400667962
C        -5.72040018042084   25.52270206490329    5.80765728410146
H        -4.69863479814594   25.69554923616045    5.48166439971981
H        -6.16771298910103   26.47244952295892    6.08898341424003
H        -6.28110896956488   25.10501655422744    4.97379881873363
C         2.45085897893775   19.90361321179964    5.90334414345374
H         3.02743918367959   20.32703893321023    5.08331186277273
H         1.43761652171243   19.72568202513942    5.55442303382025
H         2.89723168064377   18.95554866126446    6.19161528798604
C         1.53937420612031   20.33983791442153    8.21270550760375
H         1.52345157757726   21.04611779863749    9.04021764762125
H         1.91026975003458   19.38347361174742    8.57209599107584
H         0.52572347447902   20.21339255478698    7.84217781840363
C        -3.24096213935048   29.70846265431852    7.38095275967462
H        -3.58465928028480   30.50699500605515    8.03671939098472
H        -2.50513605240031   29.09554214666987    7.91119080312135
H        -4.09269788592027   29.08378932963792    7.09259814621555
C        -1.61891082899456   19.39295898633829    4.18691141998466
O        -5.26595390663829   22.18118690671151    1.68928766976722
O         2.08686669826610   23.24123509081301    1.78130961922652
C        -1.14320020281314   17.23259380119910    5.29974604290391
H        -0.78530581896197   17.80509415570426    6.13895539519518
O        -3.22383564263295   21.51040515334641    2.38932023784104
O        -0.68798194086940   15.06815431937018    6.32315063284920
C         2.51208407240172   24.56465266191549    1.37470349021613
N        -2.72679148540641   24.05639502502561    3.28767519816104
C        -3.81798281800963   23.76660828240873    2.59053919340668
N        -0.48992630747177   21.36287977476819    3.31480128738011
O        -0.56621086641392   30.35135422532825    2.10801821267452
C        -4.55466687008019   24.95187327735900    2.29079561457434
C        -5.68603174398111   20.85820816296569    1.27608547885163
C        -5.47431429267853   27.53044006632967    2.07018273267950
H        -5.85387818602304   28.53767328634323    1.97564198373429
C        -1.08270716192821   28.18696432934277    3.10197479145851
H        -0.67987664932562   27.61457086271329    2.28332182033158
C        -5.75204200602804   25.17965929326062    1.61784295859989
H        -6.30578576286844   24.35342320859114    1.20100639179064
C        -2.65123569828281   25.39917155936020    3.48208724129194
C        -1.07604511092561   29.57857156906738    3.10573170158236
C         2.31107624287343   17.89460083025188    2.20861251984768
H         2.69982165331039   16.88904950055362    2.13610195461161
C         1.37053246783302   20.46966562039665    2.37795850665460
C        -6.20217756763069   26.47687283572325    1.51421977318125
H        -7.12930181121197   26.68759170296065    1.00101305218295
O         0.02566995920731   23.90732760414910    2.42736306863636
C        -4.05875134744584   22.37932783283977    2.22183230917241
C        -4.28414842114420   27.31993063587672    2.73635311154805
H        -3.75341669959558   28.15927168515298    3.15363817836518
C        -3.80168812596003   26.01755945430278    2.85275294622964
C        -1.13807555578165   15.84100448783460    5.29718630102909
C         3.94762183562171   24.35891208556808    0.88838015145410
H         3.96399554197804   23.65221459036687    0.06257047736199
H         4.55949616664907   23.96405954783383    1.69516852598499
H         4.36777821779599   25.30294154614420    0.55423384065680
C         1.62877506134344   25.07667846292811    0.23644317263714
H         0.60623967941357   25.20204318643009    0.58210647911577
H         1.63421811231059   24.36705053345022   -0.58834252076965
H         2.00583917058096   26.03250889479601   -0.11794801106285
C         0.60523509841608   19.40394320536325    2.92302787662726
C        -0.56675091156332   20.02073800409152    3.51266144753856
C         1.09893475723333   18.10361464530776    2.83437807164537
H         0.56068434376237   17.26506401368946    3.24368297051662
C         3.04999553155273   18.94773013438875    1.66651721554221
H         3.99428085902516   18.73820300141898    1.18509639204374
C         2.58983336443065   20.24320781661593    1.74510852682814
H         3.15244825715345   21.06926127705617    1.33991943435804
C         0.86708377332843   23.04046642196711    2.28315996704756
C        -7.10875662458341   21.06755193514346    0.75488744619975
H        -7.73811529918710   21.46757063015423    1.54551759369177
H        -7.52431970546779   20.12377725987796    0.41433334370221
H        -7.10294109096308   21.77120196326588   -0.07365664387113
C        -0.19102134658981   15.71051245486122    7.47234594814103
H         0.10921767256966   14.91176888307711    8.14885296122081
H        -0.95894328174836   16.32406664071345    7.95414398587599
H         0.67798678774710   16.33444415662484    7.23937320686136
C         0.62058900979962   21.65348473249061    2.64913275506061
C         2.48251122674460   25.52254978280790    2.56620275903078
H         1.46070806238016   25.69539682996742    2.89207414995925
H         2.92987105199599   26.47230062702353    2.28497180921327
H         3.04310762779368   25.10483049796195    3.40012041025338
C        -5.68867286133287   19.90363909073605    2.47049846758520
H        -6.26508036152858   20.32719561880148    3.29058511825464
H        -4.67540355261663   19.72560545140326    2.81928797554030
H        -6.13520819114762   18.95561133766570    2.18236026581643
C        -4.77734982696373   20.33968990704735    0.16103712371225
H        -4.76154811363225   21.04585981149817   -0.66657139311091
H        -5.14825322672591   19.38326355704958   -0.19818282201767
H        -3.76365285264987   20.21332722986516    0.53146640280284
C         0.00297277868214   29.70877435231618    0.99302379295133
H         0.34687147214953   30.50735916084679    0.33742413330714
H        -0.73280130926689   29.09597856552892    0.46257665486976
H         0.85460781855157   29.08400550166568    1.28146961362546

