90
CSD_code = ELUQEI | q = 1 | S = 0 | Stoichiometry = C46H37CuN3OP2(1+) | MND = 4
Cu        5.83623419020279    2.60391696066060   13.34962946121956
P         3.81802795938068    1.85636021616873   12.49915575539847
P         5.81082062595160    3.16694763158419   15.54460774544765
O         3.99508876374119    1.27394011451479   15.15681642452434
C         6.23917340653498    1.60218571881645   17.85465962732086
H         5.41793334886322    2.14047740769001   18.30723101630683
N         6.96303139820941    3.62646625545666   12.01679401039532
C         2.63447532413525   -0.78184088948083   12.50025222780685
H         2.52811641959248   -0.74060159868924   11.42595569988009
C         3.19865340474136    0.28398846286314   13.18577171859629
C         2.83965967516256    4.23341964552091   13.49328047268546
H         3.88535611032228    4.51993462712448   13.45400088121627
C         0.19056024656134    3.43692553444607   13.57224055545270
H        -0.84414834408214    3.13020223231971   13.60142713605181
C         3.53804479762156    1.65665941837903   10.71552780458352
C         6.62971455402398    1.89530921456874   16.55235561877805
N         8.51192552957158    3.25541231025215   10.27968307048706
C         3.33161661958176    0.21390909334239   14.57639911605957
C         7.69919996763099    4.75715614237569   16.93189718513690
H         8.10704283487289    3.84101846357651   17.33456217482338
C         7.68842447143770    1.20367500103140   15.97232401486709
H         7.97762480477950    1.44308373828990   14.95634733825959
C         3.35442971962407    2.16979509413385   15.96561768445407
N         6.93366629951792    1.01292403167290   12.56131645983620
C         3.65010562882325    4.27108699487104   17.10307379226182
H         4.26912456805001    5.11409560798681   17.37274238828763
C         6.59264982662454    4.71560439045920   16.09244159150999
C         2.48243358475009    2.96684787426837   13.04520837309168
C         2.71085540427904    2.50026183900251    9.98269875272467
H         2.13973648503635    3.26726404733194   10.48691336880777
C         8.35586109603981    0.22768644671508   16.68918003364795
H         9.17939908058341   -0.30656556133760   16.23872354883998
C         8.27224384179737    5.97502447620031   17.25644846176410
H         9.12724416573158    6.00474425922270   17.91497092136262
C         2.89933055894280   -0.89437682010184   15.28168216686686
H         3.01770650248494   -0.93281250992858   16.35429187052805
C         7.07118139966042    4.93779760907776   11.83036931887669
H         6.47794591543360    5.56681939040119   12.48037434431794
C         1.14947815105355    2.56928314605248   13.08282410408048
H         0.86951114808338    1.58587964739415   12.73024154457001
C         8.01951762578524   -0.88182890022032   10.86676985202856
H         8.44321843196711   -1.62531305914929   10.20919122753669
C         4.16596566819923    3.25719556158327   16.31259928860382
C         8.62266928977660    4.55950674913649   10.07283863586110
C         7.60192095911182    1.38920445369826   11.46737414731945
C         2.04204410461117    2.09671992674260   16.39217885780236
H         1.41506740013036    1.26710428174432   16.10170895481005
C         2.19502707293601   -1.89030726586753   13.20632858061190
H         1.74519518044057   -2.71547806172264   12.67589196190365
C         2.32337649132255   -1.94608875870865   14.58462813475596
H         1.97681674052066   -2.81416220193581   15.12345231990178
C         2.61419558333452    2.34794467751051    8.61052532584277
H         1.96173588572249    2.99631297083103    8.04523573251153
C         0.55326522497402    4.69454635114959   14.02863560571605
H        -0.19937479002377    5.36296141067664   14.41754916574369
C         6.08543798776544    5.90173942010857   15.56309750362750
H         5.22758666013408    5.86115155435901   14.90333363453900
C         7.70308963218649    2.83200695474419   11.23687245941103
C         7.89964571534502    5.46467563524594   10.86237176655695
H         7.98703368428861    6.52804303083165   10.71445058000371
C         7.96434736395464   -0.06423155857130   17.98622648674217
H         8.48257524033228   -0.82730010971839   18.54682471507333
C         6.65807870400267    7.11454764262187   15.89326138186108
H         6.25462816163190    8.03188975353864   15.49025782351189
C         7.75400431547532    7.15169526265673   16.74214499652844
H         8.20381660593073    8.09824228916733   16.99996688590604
C         4.29466952683481    0.68836864454931   10.05569006606775
H         4.95191991665547    0.04593285857912   10.62865275368275
C         6.79405795513646   -0.27702291693489   12.82343826540921
H         6.24665194745086   -0.51932875878359   13.72507340210587
C         8.16568579066488    0.46593143541082   10.59008333079401
H         8.69608411320427    0.82238323261549    9.72278423333754
C         7.31893594454019   -1.26361280153763   12.00500342374428
H         7.18653006320056   -2.30395797717679   12.25496787867686
C         6.90874381770774    0.62219955670576   18.56560446438955
H         6.60805971158766    0.39446508451064   19.57734973112104
C         2.33870531731713    4.19282303084160   17.54404383948880
H         1.93596571463921    4.97681863655361   18.16605021604014
C         1.87817978002149    5.09615924794943   13.98503825434801
H         2.15759117859998    6.07710462087100   14.33922576512088
C         1.54308278342169    3.11803341706585   17.18644065782081
H         0.51991876291761    3.06914383186599   17.52516566357181
C         3.35014042840117    1.37002733577368    7.96202280640532
H         3.27036247417721    1.25513891151502    6.89195163476196
C         9.53555267504262    5.01105280449151    8.99036235217015
H        10.00329730717455    4.15334336369359    8.51709990789146
H        10.30466915271002    5.66493637417796    9.39803901984509
H         8.98037196386101    5.57860799249360    8.24527264609076
C         4.19365139416603    0.54113043004135    8.68607156359862
H         4.77300785527143   -0.21746202989144    8.18091431757176

