44
CSD_code = ELUROS | q = 0 | S = 0 | Stoichiometry = C20H17Cl3N3Re | MND = 6
Re        8.60634011689193    5.73329980637682    9.71111785598440
Cl        9.84172387759991    6.94091837387147   11.30927163707891
Cl        8.39269694290227    4.11823521535016   11.26969747166648
Cl        6.93290147475753    4.61957529873059    8.43637135837282
N         6.95300012747226    6.86974974884613   10.44360182689219
N         8.52087380444795    7.39099516844244    8.49432955630366
N         9.93262184895660    5.09391856461309    8.74965082864743
C         6.18581012545410    6.54898649313270   11.56662430167268
C         5.58137519419381    5.29594089264831   11.66499460212073
H         5.67588228906649    4.59329922684342   10.85044579415682
C         4.84595324686607    4.97843061290733   12.78967153636008
H         4.37709130535083    4.00877887979809   12.85907860338191
C         4.71320390466300    5.89204331232987   13.82304741664013
H         4.14649718726247    5.63342840417271   14.70472574842303
C         5.31486033403161    7.13625111964054   13.72680881079169
H         5.22429944517690    7.84745350241963   14.53431210309794
C         6.04082108557134    7.47321882148598   12.60132215102154
H         6.54441813319631    8.42761130347152   12.53572502616301
C         6.74365337643892    7.99967067011459    9.82882162775258
H         5.95191409469414    8.67869875406146   10.12753747095243
C         7.58309267615295    8.27512402519109    8.73577019648379
H         7.47741399901575    9.16709085419198    8.13207912055004
C         9.37592188459994    7.61366368500864    7.39863983426204
C        10.74837685929388    7.72032851583946    7.61202763223945
H        11.12491695776627    7.66912530653450    8.62283500597873
C        11.59632084781967    7.90119967409741    6.53631481081428
H        12.65886499871645    7.98763724968206    6.70385328054696
C        11.08755398896452    7.96584414342697    5.24895351206479
H        11.75470869274841    8.09551700606713    4.41063010768074
C         9.72260505284266    7.86585063470322    5.03867594884249
H         9.32346054045183    7.91600312275432    4.03701197383607
C         8.86185193765484    7.70072914923461    6.10874234497739
H         7.79799963244493    7.60029521808285    5.95347152764772
C        12.21874929125177    4.67336043076218    8.25867470137062
H        12.47158005293154    4.88664791229306    9.28539696241294
C        13.17660255803284    4.34564881230357    7.32611633408314
H        14.21379604402275    4.29630743363801    7.62179226579045
C        12.81823373427123    4.07877581977590    6.01133070900692
H        13.57688190400508    3.82546321215268    5.28670176310742
C        11.48382396038700    4.12963574784226    5.62895360022135
H        11.20799843054140    3.91244383763436    4.60810071608806
C        10.50725639855342    4.45383229498623    6.54199189915440
H         9.46372553832614    4.49588219450011    6.27263479911276
C        10.86222610419154    4.74288954998555    7.87784522631649

