68
CSD_code = ELUSUB | q = 0 | S = 0 | Stoichiometry = C25H37Br2N3Ni | MND = 6
Br        3.50812108494334   10.85658284889803    7.56663658796455
Br        3.35397526964594   11.62818654215832   10.71138282365537
Ni        3.91173614054273    9.83727584423813    9.55199400761291
N         4.40099149843080    8.24335523627102    8.65244069317364
N         6.33319036180518    9.87843986082405    9.85274617168469
N         1.95924173431169    8.44717423169263   10.00389474235057
C         4.50127935891338    8.23531063411104   11.45470251084966
H         4.16735461013566    9.24595970234973   11.67655523616091
C         3.56370394913171    7.21643833856498   11.34072311756983
C         4.00941636942668    5.90927282320991   11.20844176145056
H         3.29618909749689    5.10100582021157   11.12756041942852
C         5.36719135971414    5.63948285044778   11.16015201565463
H         5.70818810327168    4.61861117842810   11.07072460183243
C         6.28716550637548    6.67526406900456   11.15053266714425
H         7.33918614082460    6.46066149484220   11.02499411079963
C         5.85777741395119    7.98757363954602   11.28196376952417
C         6.76243537499376    9.17068312377874   11.06711403444202
H         7.80669163741694    8.83371819109488   10.99072042938147
H         6.67075558226300    9.86448188388318   11.90620660772154
C         6.66562911018139    9.11728150364583    8.64682141692503
H         7.67217734806558    8.67828301516214    8.69122244467142
H         6.62830996767630    9.80291346423178    7.79176394258607
C         5.67796025176524    8.01609596094069    8.35940235731464
C         6.07566262567431    6.82941557944473    7.75881725189706
H         7.11503125136876    6.67116860715418    7.51812738259886
C         5.12394865465886    5.86545654517409    7.47901227075023
H         5.40660005840687    4.93605123423886    7.00878985937215
C         3.80527054927226    6.10735694765128    7.82161710059964
H         3.03733735397840    5.37439271541575    7.63130020295117
C         3.47609338065544    7.31508849632286    8.41934020283102
C         2.05448870984893    7.66185677842338    8.77413556246465
H         1.67050977175229    8.27967250604762    7.95363320968327
H         1.46102537077079    6.73624801393164    8.82358678257775
C         2.11555474812080    7.60255573705372   11.19870452985530
H         1.80506995124212    8.19004405644685   12.06672121304647
H         1.49773426384698    6.69638149720186   11.14549322142750
C         6.72507737274262   11.29536076001567    9.80314215673094
H         6.22022811291393   11.78202344047647   10.64311854290468
H         6.27715058600893   11.69641129195618    8.88745216802806
C         8.19983787897454   11.77167784486447    9.84620120419285
C         8.14186405936460   13.26525957136576    9.49210369380001
H         7.77179844216131   13.40891872568213    8.47963255748380
H         9.13185436600048   13.71055224384570    9.55891448906159
H         7.48112291839455   13.79505786831673   10.17381955743788
C         8.81232152487438   11.64572337971433   11.24542339711022
H         8.14908429708610   12.07035765650606   11.99578939237047
H         9.75355414118681   12.19104366962304   11.28284071176237
H         9.02257853952475   10.61322967188043   11.51035211413107
C         9.11040890148333   11.07638860940608    8.83221596700116
H         9.30970399968042   10.04390938804690    9.10986225509660
H        10.06775536051435   11.59309039178401    8.79233951004093
H         8.67711851033665   11.09924405683035    7.83501413185932
C         0.80666868157121    9.36039849609871   10.04308099072221
H         0.97928569618657   10.10894956823524    9.26047622756039
H         0.87487056983891    9.88227386556451   11.00141835981233
C        -0.65908964932269    8.88272528627948    9.87837531426462
C        -1.51513895449596   10.09675628647839   10.26932718627771
H        -1.35882396600212   10.36213785487363   11.31240853390736
H        -2.57123019734859    9.87859793219066   10.12843334951497
H        -1.25887186179573   10.95783370143789    9.65729016766652
C        -1.00120829946486    8.51806228839451    8.42917538663775
H        -0.64547893976176    9.28399126721640    7.74344538762015
H        -2.08135739956979    8.44492993869768    8.31694762130519
H        -0.57910688764398    7.56071677093399    8.13540021923989
C        -1.03352529527410    7.71683400827872   10.79548627337791
H        -0.56964645026658    6.78681077732128   10.47450522215247
H        -2.11159519898759    7.56786681204023   10.77120936055109
H        -0.74580481979065    7.91962560360381   11.82452329042417

