61
CSD_code = EMAGII | q = 0 | S = 0 | Stoichiometry = C23H33BCl2SiZr | MND = 12
Zr        6.12851297110272    6.06549226323756    5.71890868323727
Cl        5.06666360211125    5.18792207871176    3.83151500372464
Cl        7.74624312470850    4.38334346089868    5.77635177392231
Si        4.63772551113084    8.81568057476643    6.73555571448886
C         6.17661606849733    8.50086921818946    5.67147150666033
C         7.43166203454151    8.07921437583362    6.20350997053701
H         7.81745599827137    8.33603523701928    7.18439505359176
C         8.17485338199210    7.46354825205604    5.17459146156704
H         9.20822931736590    7.14253575308564    5.23860017097236
C         7.37985435101727    7.45790662690644    4.00662604788950
H         7.69348718070651    7.11725592653764    3.02620849330091
C         6.15198806255203    8.08354334401699    4.31324957367466
H         5.36552392732562    8.30392725186124    3.59983990898583
C         4.91719054276548   10.08661555992206    8.12561036109930
H         5.07449362345551   11.07731836663462    7.71363877299290
H         5.78094287224835    9.84099958451487    8.73418691043705
H         4.05422502085459   10.13381181453738    8.78057528655362
C         3.13076993720388    9.22051100407434    5.64316180512517
H         2.22130709228716    9.25124840182605    6.23311907027563
H         2.99717495075770    8.47763036332251    4.86106261681360
H         3.24459541140610   10.18862334944682    5.16799959083591
C         4.56008012456777    7.02320712597217    7.34689950015621
C         5.59724450192305    6.42843182416942    8.11911270612655
H         6.21747220420086    6.94726751024629    8.84132818199818
C         5.55777380256244    5.03131910156232    7.93667266925353
H         6.15096468649356    4.29844231710982    8.47214550256530
C         4.52121323804313    4.73484693057986    7.01395689598044
C         3.91077295492158    5.96197762398907    6.65178271887457
H         3.03084904048664    6.06057314554453    6.02375794680162
C         4.10757473700511    3.36110079074375    6.56597421500314
H         4.98494635110740    2.70340352321630    6.55018948259789
H         3.69900880079152    3.41154185717779    5.55043549638528
C         3.04448575276196    2.77264735277375    7.50541357550562
H         3.44908415064248    2.72876632023291    8.51839024494874
H         2.18184936926273    3.44132878946869    7.52098851952530
C         2.60576234283621    1.37515440906714    7.06504594870058
H         3.48795263370517    0.72812139717343    7.02187012267510
H         2.25559269282937    1.43106474993449    6.02855127389043
B         1.49097797584113    0.66992067818264    7.92379072899468
C         0.71942743622319    1.26847968030375    9.16159524620441
H         1.01384506265050    2.28781163611728    9.43484421698978
C         1.02951384672325    0.38776614992602   10.39034555485316
H         2.08543273234010    0.53832871424045   10.63268639243138
H         0.44549177939693    0.73538437871199   11.24731258033266
C         0.78183200463198   -1.10974247376861   10.19880455649908
H        -0.27929501068607   -1.32469415450808   10.30529687072228
H         1.28497426614688   -1.64641164415739   11.00928982572747
C         1.29177345770176   -1.66507631137412    8.86768985908212
H         2.37983455723995   -1.76191206819384    8.92366566504428
H         0.88210460120400   -2.66880740763651    8.72337741907549
C         0.97830628345489   -0.79411613951148    7.63318699615163
H         1.46770224868653   -1.28078294075145    6.78093447766723
C        -0.52361714396362   -0.72384187242938    7.28771184153933
H        -0.60628299360750   -0.21907072988775    6.32088615937947
H        -0.91983353127302   -1.73546762010365    7.16208709686414
C        -1.38959335994090    0.02326485960950    8.30395104367777
H        -2.35134825893286    0.25024006873917    7.83320355902668
H        -1.61082238699636   -0.62615925359794    9.14827691443150
C        -0.78050899209881    1.33425514973702    8.80461253158503
H        -1.34939769006249    1.67839879286181    9.67309948500916
H        -0.88995925113355    2.09090493113342    8.02235820101611

