67
CSD_code = EMALAH | q = 0 | S = 0 | Stoichiometry = C35H27IrN2O2 | MND = 6
Ir        1.11567305313655    1.38544740542599    9.05961848574587
N         2.40787276940455    2.76021492292720    8.31559381043028
C         2.12951305689597    3.65558621536271    7.33350923043590
C         1.14737563608773    3.36554194444711    6.36509134343831
H         0.65655764221031    2.40654507452740    6.39962718583333
C         0.83131323994179    4.28194442765242    5.39858524406576
H         0.07566734530340    4.04750299466512    4.66356953706058
C         1.48427741589528    5.52094169479196    5.34210011282815
H         1.21179609956789    6.23501930614977    4.57907153418288
C         2.47862605418265    5.80999945503880    6.23617776006638
H         3.01461939521456    6.74706856334247    6.18542627473042
C         2.83678911750172    4.88489187254684    7.23425737700201
C         3.88824431782147    5.11762340286084    8.14685435796817
H         4.42251358192691    6.05627875560103    8.11094282932221
C         4.22450634411044    4.14468461443912    9.04098472484329
H         5.04308955264099    4.28861918498961    9.72738290273494
C         3.46584390450287    2.95765636253229    9.11215902734124
C         3.74926103824388    1.86275523180258   10.02547735890567
C         2.76655491967394    0.84957288609008   10.05299801341395
C         2.99429950992879   -0.25446735027901   10.86801127312434
H         2.26377485762828   -1.05058216274911   10.91141302217602
C         4.14954797033049   -0.35860069140159   11.62401435609202
H         4.30942710502060   -1.22838501622194   12.24576298561380
C         5.10452625744365    0.64803864240998   11.59208435508652
H         6.00187334063586    0.56191529890028   12.18759794904398
C         4.90773211949209    1.75708402004120   10.79596448681469
H         5.65969840751551    2.53243491180825   10.77071161233924
N        -0.20945068740304    0.04547225242581    9.81139259247215
C        -0.85800103622422    0.15281791997582   10.99982151393331
C        -0.29728509944287    0.90721400272874   12.05000426539033
H         0.66757793134510    1.36308838175022   11.89929812247756
C        -0.96337747261449    1.05080518931927   13.23726322737277
H        -0.52237853719226    1.63309620228701   14.03263069450086
C        -2.20940027624990    0.44203470112594   13.44053623763885
H        -2.72372417061635    0.57630512070265   14.38063389104108
C        -2.75651113368926   -0.33685609981724   12.45794179696879
H        -3.70137073672193   -0.83888138988709   12.61008261679291
C        -2.09236541873015   -0.51427389092040   11.23003192532551
C        -2.59561557245827   -1.34548936148912   10.20627974716196
H        -3.54577055279494   -1.84104966063521   10.34541750229670
C        -1.86214942659940   -1.52510170125152    9.07115219278778
H        -2.21275710639486   -2.17813781279746    8.28854112245438
C        -0.65608227678582   -0.81664011540795    8.88893687798804
C         0.20096667572628   -0.95634342833470    7.72327904577206
C         1.27870208186147   -0.04604840406887    7.67305454145771
C         2.17389801292644   -0.15614156049635    6.61393168879640
H         3.01353361744195    0.52197329385751    6.54689495808413
C         2.01440883713622   -1.12863922790007    5.64148907563493
H         2.72556476316644   -1.20078470596092    4.83050233820756
C         0.94470638181373   -2.01121893828384    5.69801728651157
H         0.82329476734370   -2.76420066965284    4.93280270288327
C         0.03909415803070   -1.92812178131340    6.73501773555918
H        -0.78602016737842   -2.62436095230830    6.77538224448808
O        -0.77537701961332    2.15526553596084    8.14406700510613
O         0.75479401038175    3.09254962789008   10.46475409098168
C        -2.70386358207993    3.42762117147967    7.64549994043779
H        -2.83735012055011    2.63951768273917    6.90825084244265
H        -2.58261613402759    4.38010638871250    7.13244057896940
H        -3.58680401745879    3.48796729566886    8.27796705167524
C        -1.46964791721400    3.14075324564652    8.48479280830991
C        -1.22981257415136    4.01685018768754    9.54652943508438
H        -1.93537009721180    4.82261228419844    9.68637725051838
C        -0.16191433032540    3.94599546018235   10.44480332586975
C        -0.11838663933029    5.01852818663028   11.52079362976487
H         0.78397257338814    4.90361608288308   12.11671523557556
H        -0.98902065419122    4.92510500343518   12.16739272863401
H        -0.13126510537517    6.00776251553643   11.06819298199110

