39
CSD_code = EMALOU | q = 0 | S = 0 | Stoichiometry = C15H17AgN2O4 | MND = 2
Ag       -1.38247546978450    8.11355598844525    0.89242867511532
C         1.90185817399978    8.87648910468580    5.15096325249448
H         1.99423618134312    8.12556477002840    5.92244615667368
C         2.75764533206017    9.96085786759609    5.14336999552284
H         3.52471994053872   10.07260274844227    5.89448914262321
C         2.64302539813149   10.93528962620645    4.15618460950535
C         3.58661590821513   12.08150715659131    4.18970484477741
O         4.45694790000744   12.21761001320248    5.01469057878174
O         3.36948423704237   12.95519569101745    3.19885910786781
C         4.23118163312267   14.08271050703970    3.16530054667603
H         4.09932409135971   14.68740934354818    4.06491966584780
H         3.95539792758961   14.64982046704115    2.28026474304618
H         5.27351536907394   13.76237164624322    3.10878034929462
C         1.65874560246058   10.81491749209092    3.17755102554789
H         1.56678878924410   11.57149210140747    2.41530297890570
C         0.80571668323004    9.72963785157398    3.19290405456162
H         0.02983401253066    9.63577951031974    2.43013843583148
C         0.91877722526651    8.75331974711785    4.17678780143114
C         0.00049000694445    7.55464217432180    4.15061987017594
H         0.02938514373164    7.02879948546642    5.10850297808740
H        -1.02453392252123    7.87944826385517    3.94089627614189
N         0.39122026784825    6.64362012036741    3.10170333283234
C        -0.13518391649938    6.63650043231064    1.85844886505121
C         1.39711461921721    5.72441395874425    3.20752495440497
H         1.95124917426695    5.57408227947100    4.11079198295353
C         1.49939798366991    5.12186198733216    1.99841157472546
H         2.15505082007390    4.34543306361769    1.66148673708877
N         0.56102040256991    5.69763274787822    1.18938216140079
C         0.34239160868440    5.34008765127042   -0.18512436495706
H        -0.26999781362572    6.11197792676839   -0.65868553088085
H        -0.17147231845927    4.37907823202569   -0.25503066978532
H         1.29571134271841    5.27137220645826   -0.70860470491840
O        -2.56941747747849    9.78309624518059    0.07249547524085
O        -1.33714481919590    8.77480643105953   -1.44692333379417
C        -2.15859583066612    9.64733281058403   -1.10940870180542
C        -2.71410613456891   10.59144329022284   -2.16321623624316
H        -2.00261571413759   10.69881739607415   -2.97699004796493
H        -2.93705776686657   11.55609715585958   -1.71626432833036
H        -3.63664459121218   10.16662450836264   -2.55480225401268

