66
CSD_code = EMAVUL | q = 0 | S = 0 | Stoichiometry = C28H30FN3O2PdS | MND = 6
Pd       11.85094981056279    2.24638135341293    3.43304528210059
S        11.43996507702792    0.06281827149212    5.79138079422878
F        10.77597390061442    1.69354210155102    1.90276098894523
O        11.53827172915074    1.39542979113802    6.36563913205130
O        10.24785498173953   -0.69687241570098    6.08292433168425
N        13.15449211658519    2.74041220628008    4.83261706629608
N        13.77363080696577    1.30734783606098    2.62244672764677
N        11.78109361819266    0.18834476697436    4.23751169216520
C        13.05030124615024    3.70643335491058    5.73782806796675
H        12.18840063541616    4.35418488752228    5.65444508217597
C        13.98160192863958    3.89385064556950    6.74182090795454
H        13.84998298372947    4.68763503097684    7.45913439851805
C        15.07556795467505    3.04223044053701    6.80783587484455
H        15.81994029522310    3.15463683734868    7.58118875108706
C        15.19680182868729    2.04965053909901    5.85400543503963
H        16.04632243785214    1.38551575064176    5.85560267319247
C        14.21665352251588    1.91837104940395    4.87176608569886
C        14.33587720911913    0.93367961881728    3.78532199519447
C        15.03529403294618   -0.26665646737960    3.90532912622037
H        15.45551298776019   -0.56490686817003    4.85264371353340
C        15.11833410792378   -1.09840096161794    2.80193031996183
H        15.63128441603470   -2.04603568977863    2.87578411714206
C        14.53425800599526   -0.70290298597493    1.60676680874410
H        14.58221543302281   -1.32811311289277    0.72972164288277
C        13.85987392899410    0.50905178002047    1.57116273406781
H        13.37201963677750    0.86393667188459    0.67135214224463
C        10.09523292431407    2.97482525633943    4.25039192089492
H         9.36264337762735    2.17633733368087    4.08889574981984
H        10.27983419222976    3.07819458378296    5.32392352851086
C         9.63973259695580    4.29483908484638    3.60922787140564
C        10.85288338352875    4.94837273208721    2.97941115954421
C        10.89638560618917    6.27560007637731    2.57282570121033
H        10.04654715614126    6.92134003865878    2.73807734820243
C        12.02479863484508    6.78001178637223    1.94941519463431
H        12.05111671273630    7.81395413147424    1.63718609009390
C        13.11403598053916    5.95939720474370    1.71817142637111
H        13.99145848646903    6.34992264213152    1.22241934247422
C        13.07969261796906    4.63104289880044    2.12155666575664
H        13.93838263982308    3.99456595679281    1.92979305493246
C        11.95513688295004    4.12162385622648    2.75142359574605
C         8.62198568344467    4.01492130734377    2.49411982198032
H         8.36265507154706    4.93360866213062    1.97238019810293
H         7.71648542922538    3.58067177702885    2.91148724405425
H         9.05117713356410    3.31700763225601    1.78058578969897
C         8.99661035609218    5.18060430694237    4.68579616932436
H         8.54030117703866    6.06073871421267    4.23967324940744
H         9.73755914417541    5.50573431331396    5.41329239519428
H         8.22109328187620    4.62325960402763    5.20564194578057
C        11.39567704554527   -0.95550695948077    3.44633971538061
H        12.23441148453832   -1.66201450750103    3.34502877945683
H        11.09302035251708   -0.63128762204172    2.44932968989518
H        10.55350531151237   -1.46872116704675    3.92055610262976
C        12.82901868170229   -0.85929578711577    6.48724177104512
C        13.69674622980228   -0.22712281550201    7.35747131579468
H        13.46340285761028    0.77918125379555    7.66777834169834
C        14.81702691745547   -0.89140205463112    7.82452459407765
H        15.49135876981189   -0.39664909727658    8.50997672578679
C        15.08238633810753   -2.19820860513076    7.42725112064909
C        14.18657933496062   -2.83018174989900    6.57215533817718
H        14.36825598943378   -3.85300107324826    6.27339952426404
C        13.06255748016812   -2.16767078577421    6.10769861218593
H        12.35443535593540   -2.66642141167587    5.46625154638218
C        16.29130605454779   -2.91870995485140    7.94449552625412
H        16.55061650400351   -3.75719768795258    7.30280950378802
H        16.09151714391183   -3.30664173036631    8.94348193171204
H        17.14505504683615   -2.24738657598725    8.01364850610465

