65
CSD_code = EMAVIY | q = 0 | S = 0 | Stoichiometry = C30H26ClO5P2Re | MND = 6
Cl        1.57111258235719    2.52304407179911    1.55628892165639
Re        3.67498947519847    2.24137168678241    2.83075429468665
P         3.42390726438573    0.59989972075204    1.03757777253267
P         5.81638402754326    1.87978890238135    3.93762690721994
C         4.43648723467960    3.41846853278561    1.46198216610578
O         4.85724965950942    4.07590529047535    0.62835541464993
C         2.94370935607036    0.98342412338631    4.14166755922843
O         2.64247133777101    0.23792045672004    4.95716475294491
C         3.22606127871936    3.71245537145718    4.02272293402176
O         2.87823118295232    4.57354702881463    4.69561878114275
O         6.83614308194108    0.75612947597289    3.40371366162118
C         7.09439099660271    0.55943457720459    2.01795501214455
H         8.14576806988676    0.79956213866090    1.83197251849155
H         6.46777587049920    1.22933982979331    1.41505519593803
C         6.79590938471305   -0.89277352610552    1.66150308787452
H         7.13975008302948   -1.09137400987692    0.64608816326298
H         7.32128283595508   -1.55110602023270    2.35376255675935
C         5.29477011568229   -1.15984576337594    1.74208737859132
H         5.08618821425134   -2.22737607455108    1.61331430971915
H         4.91309441879876   -0.85007036901144    2.72719359366558
O         4.64600755653427   -0.45002693250774    0.70820077961667
C         2.02360910674465   -0.57451823673775    1.10111965085936
C         1.03129799649152   -0.54621958605268    2.06879546212045
H         1.01940122054912    0.23760338153239    2.81195867475114
C         0.02997419693428   -1.50173331831500    2.06061084625699
H        -0.74179928864615   -1.47234820021215    2.81557905856454
C         1.00414794383616   -2.51672555712602    0.11774166139678
H         0.99131762371595   -3.28029649686833   -0.64675542063237
C         0.01400178828363   -2.48593787313259    1.08748431216609
H        -0.77135811379303   -3.22761773717421    1.08076382656407
C         2.00811274920558   -1.56806765378826    0.12573422020251
H         2.78646487074913   -1.58582920136137   -0.62561691432248
C         3.34943381010791    1.23656625515395   -0.66252826591948
C         2.14099244550294    1.37166531687062   -1.33366664446266
H         1.22065228715703    1.08549468446174   -0.84567946026586
C         2.12003632101094    1.88846801835566   -2.61596475234368
H         1.17825088222902    1.99350290630851   -3.13437695924147
C         3.29857182006796    2.27745783825565   -3.23139543132941
H         3.27723987882168    2.68783504343270   -4.23045362082766
C         4.50438702580889    2.14392141950642   -2.56388449052881
H         5.42529011753302    2.45002047844075   -3.03901713223673
C         4.53094037171636    1.62595001907349   -1.28220216637647
H         5.47310087522357    1.51897391403367   -0.76142755198704
C         5.67218624588295    1.30125944999688    5.64805288223199
C         5.18705182069222    2.21200137616694    6.58141608149546
H         4.96975384736084    3.22380137571833    6.26474212491132
C         4.98593124347139    1.81781049337950    7.88969761994500
H         4.61069771398388    2.52431741460317    8.61487783540270
C         5.25898931203075    0.51162096313384    8.26739915768864
H         5.09593074136454    0.20122803736396    9.28878768390552
C         5.73285437559858   -0.39725933633426    7.33662636385336
H         5.93776736556623   -1.41592947234932    7.63201472614023
C         5.93646864497353   -0.00828052961545    6.02381719730964
H         6.30133492270207   -0.71387498297412    5.29233384457084
C         6.90725462481802    3.33421749735382    4.14577770735358
C         6.50841579610054    4.62132101153786    3.81762795802897
H         5.51765074012134    4.78701674389196    3.41631465149729
C         7.37689296024583    5.68225730650403    4.00965591611441
H         7.06465223830851    6.68362580576641    3.75346036342043
C         8.64149159287704    5.45935494653874    4.52795018006742
H         9.31772099555691    6.28829758199422    4.67558569138283
C         9.04115899135373    4.17358507494453    4.85954585363219
H        10.02649946893232    4.00132244289174    5.26724492104403
C         8.17647642830903    3.11238245234915    4.67172111839646
H         8.47296997359807    2.10474042107648    4.92962545719728

