51
CSD_code = EMAWAS | q = 0 | S = 0 | Stoichiometry = C21H23N3O2PdS | MND = 4
S         5.13739344896942    1.18068021320887   11.30353751198189
Pd        2.82459380377452    2.48251541413093   12.07490171667624
O         4.53543027327731    1.89150520562697   10.18323343700990
O         5.86714239771850   -0.01773860838161   10.96819354122608
N         1.63598180386324    4.01184008452138   11.59535749116842
N         1.75069691254280    1.62937767639588   10.34428755158702
N         3.96891472078782    0.87899645413233   12.34674887229380
C         1.26214369612284    5.06160779791122   12.32607557887877
H         1.56776041770877    5.05367416798975   13.36484792541549
C         0.53071026698739    6.11462193949227   11.80839504980567
H         0.25215100305757    6.94135710670459   12.44186789763821
C         0.16767432317808    6.08492720019282   10.46856294752450
H        -0.39798582354957    6.89229081330463   10.02969941188799
C         0.53249599118611    4.98615525125737    9.71050957262180
H         0.23921730934462    4.91507753563687    8.67515008687725
C         1.26117361928890    3.95606083789353   10.29936058441584
C         1.60952861731255    2.71964387007104    9.57263430088992
C         1.76622380126307    2.66149946128598    8.19046634323254
H         1.69217540502944    3.55503503350494    7.59003326492143
C         2.07980707426065    1.44599346216659    7.60646126939434
H         2.23182114855461    1.37931432958536    6.53931384319876
C         2.21329838591816    0.32631507535274    8.41086167654398
H         2.46721999504107   -0.63385571062749    7.99197577589094
C         2.05049959380367    0.47115691997245    9.78061924169655
H         2.17260716518824   -0.36783390680139   10.45456904527820
C         3.82162592644432    3.27077412174388   13.62950832695846
C         4.28085965830354    4.58374811664851   13.52981646812013
H         4.05560121323256    5.17599403031338   12.64331137298829
C         5.04143462058920    5.16176262067552   14.53542111765637
H         5.39249912679939    6.17939664186256   14.43622360197164
C         5.34565202890723    4.42259912681039   15.66162074663606
H         5.92802025698216    4.86005140555510   16.45972313453517
C         4.91577518324342    3.11029825719892   15.76534359526478
H         5.17926310935658    2.55909843643486   16.65396759498071
C         4.16743779485470    2.50994503161283   14.75769241504301
C         3.74965438730221    1.04478335200655   14.83576402831415
C         4.33712692401748    0.29693242447673   13.60659370283991
H         5.43103344742019    0.25926923566444   13.69696453015700
H         3.97109990890887   -0.74012661398214   13.63450583781113
C         4.26280677235820    0.33331110548206   16.09063104002004
H         3.96564291300029   -0.71282790171571   16.05928877469326
H         5.34801059565777    0.36907415900891   16.15020399423919
H         3.83902669946097    0.77706973317850   16.98862202029098
C         2.21467573402937    0.94152649902767   14.82269122905335
H         1.79682198138975    1.53129371461088   15.63664642184456
H         1.91204291798160   -0.09599635146285   14.94773752910730
H         1.80992304849872    1.31406255514719   13.86223520385239
C         6.37494983666823    2.34094490834810   11.99807187486511
H         6.52081891416179    2.15312162972924   13.05373600843647
H         6.00273944523712    3.34427999611851   11.83091106131724
H         7.28878220455389    2.16499614105268   11.44650443090606

