37
CSD_code = EMAXAR | q = 0 | S = 0 | Stoichiometry = C15H14ClN3O2PRh | MND = 4
Rh       16.46891974462643    1.19621258174607    9.95721356329254
Cl       14.86087986680259   -0.20916075450217   10.52715261938614
P        18.16985319867085    2.37280281750703    9.16048778997476
O        16.48678158109989    0.22254597165292    8.17121093950876
N        18.25631840978295    2.43668827546604    7.42864855439983
C        16.50162769867790   -0.62804583391275    5.97209012295566
H        17.38417872392566   -1.04675737843152    5.49460649715961
H        15.88807567853129   -0.15504894987681    5.20830461088172
H        15.92986379178716   -1.42132735923071    6.44708241270943
O        16.27098237065276    2.61727103785455   12.55769078056279
N        19.67732924071194    1.66565204008736    9.50084380564998
C        16.89469601340549    0.38179689145878    7.01731902296252
N        18.52196409905103    4.00230607031643    9.47737574750738
C        17.72140250055241    1.47722297951822    6.58026271873632
C        18.10984268466068    1.79719523719926    5.28627400719919
H        17.85392197842568    1.25761933270115    4.39650120923900
C        18.88463582860724    2.95920732867149    5.35083362999214
H        19.33470486104927    3.47518058112094    4.52624281233805
C        18.96242731988324    3.32120422118668    6.67145741239181
H        19.45857955337362    4.16329974369450    7.11413104910366
C        20.94656198676812    2.01116444232905    9.09365782315967
H        21.12290132742532    2.88834282926588    8.50223310116488
C        21.82039736188004    1.08426735165013    9.56974399361443
H        22.88281826653287    1.07995955173338    9.42461223616935
C        21.07104353683321    0.12273083306222   10.29418496863949
H        21.46465959722040   -0.73890486342948   10.79513550479774
C        19.76763327933105    0.50060867432437   10.23296909080218
H        18.87110062326407    0.05415518799314   10.64525546539201
C        19.36531901384025    4.50317191223056   10.44359901742878
H        20.10342139897276    3.88032861612116   10.90995138697849
C        19.09026675438756    5.82324508908861   10.61916709965064
H        19.59744761747808    6.49554353803865   11.28206536546920
C        18.00990756591685    6.15010259443817    9.76251414218014
H        17.55102845832311    7.11335586356770    9.66062541237127
C        17.66847559679836    5.01592866612770    9.09591360753601
H        16.89984249814598    4.83522568752457    8.36741786392759
C        16.33768997260157    2.05150919170649   11.56552461476616

