79
CSD_code = EMAXIA | q = 0 | S = 0 | Stoichiometry = C30H34N12NiS2 | MND = 6
Ni       -0.00016820812050   -0.00016788898726    8.27496156620994
S        -0.13083445640368   -2.49121147441462    5.67296232357130
N         1.26699312753592   -0.93397512246306    7.39119359741882
N         2.53486493122270   -0.69657554973070    7.72091579546065
N         2.52676007184420   -2.19800953873623    6.12288697163626
N         1.08151805784635    1.90561265397375    7.84228680126567
H         1.07762474992755    2.41763020903584    8.72768223744164
H         2.04697613538425    1.69618669408595    7.59998337031220
N        -0.88130851805613    0.63561079426187    6.28405540637845
H        -0.91515083802078   -0.21446586184546    5.71944627259907
H        -1.83193714987834    0.96895364985147    6.41910837155972
C         5.56550004064047   -1.73079263488493    5.93831363952599
H         5.14571402662216   -2.05755566617706    4.99998109677431
C         2.91519761077599   -3.24261804191296    5.26579405112906
C         5.37484180599860   -0.92886848343613    8.18379607217054
H         4.77557731517275   -0.63250268490042    9.02946422734196
C         4.75119811588710   -1.38872954672150    7.01978840164000
N         7.52760575404927   -1.21219643485732    7.19815022965725
C         3.30586761658285   -1.44444854811177    6.97494018592915
C         2.46363001207110   -3.26540692117493    3.95267316661862
H         1.82801547882286   -2.47289421353552    3.59009341795513
C         1.22018319260101   -1.84909827822164    6.41363826159744
C         6.75484057092330   -0.86380271294627    8.21527979221095
H         7.27536411924034   -0.51816787980416    9.09873567353879
C         3.72082218510795   -4.26738061378013    5.75158031630008
H         4.05586833780807   -4.24506659390799    6.77890078798785
C         4.08837139145702   -5.30153461041742    4.91245215865655
H         4.71747770720842   -6.09463827515272    5.28788519474159
C         3.64273771029272   -5.32654963586994    3.60061584302585
H         3.92633373396317   -6.14060467599046    2.95091394780005
C         2.82900445551257   -4.31235939019202    3.12588949340027
H         2.47486830017585   -4.33276132645298    2.10627104387247
C         6.93749751307728   -1.62579245620667    6.08969661067292
H         7.60217038677697   -1.88853439083185    5.27708877650491
C         0.41710582851777    2.64619202413290    6.77754520079145
H         1.06530090346949    3.41174903117989    6.33028430388910
H        -0.46280990651070    3.14162598505324    7.19699813765945
C        -0.04211893954726    1.66459028727204    5.68376134507885
H        -0.55805204441624    2.22107926030068    4.88927197592153
H         0.83985932443488    1.18428814364048    5.25143743496797
S         0.13072737943088    2.49049887768860   10.87721136894208
N        -1.26731836112621    0.93367761412677    9.15875169299393
N        -2.53521850738034    0.69664302075191    8.82888935252547
N        -2.52687203496319    2.19791909478580   10.42705617162803
N        -1.08200252983646   -1.90596143711473    8.70740570809045
H        -1.07803931889391   -2.41790666899898    7.82196678845268
H        -2.04747555307558   -1.69659710937098    8.94968628281470
N         0.88083237354766   -0.63617529221424   10.26582460006249
H         0.91467090354205    0.21389147662840   10.83045897303600
H         1.83145820994459   -0.96956776943407   10.13087795746652
C        -5.56582532827981    1.73136546518963   10.61120610229792
H        -5.14612169419418    2.05814539266587   11.54957649350191
C        -2.91499529090805    3.24257763225320   11.28423675176865
C        -5.37495673960035    0.92942200312660    8.36574413397096
H        -4.77559754122719    0.63311001841786    7.52012142724915
C        -4.75142459698242    1.38922063264803    9.52983985904302
N        -7.52780086033085    1.21263904998718    9.35121838573346
C        -3.30609396675357    1.44465085674446    9.57486628334857
C        -2.46366527959984    3.26491375724473   12.59745536140186
H        -1.82871750768812    2.47188808300660   12.96007702028781
C        -1.22035929685631    1.84870584786054   10.13638723274736
C        -6.75494458934895    0.86434756980764    8.33412060062541
H        -7.27538553874514    0.51881831432342    7.45056719346729
C        -3.71984737855575    4.26791754747362   10.79841061559088
H        -4.05460526280682    4.24598066306348    9.77100080907136
C        -4.08676979970235    5.30229191229808   11.63756518149982
H        -4.71512981821190    6.09594051643512   11.26206563982824
C        -3.64129134287762    5.32691480386616   12.94948256570629
H        -3.92441396737093    6.14112708724280   13.59921081885862
C        -2.82842763081889    4.31206060869750   13.42428119397012
H        -2.47460512629176    4.33203796557197   14.44400119293880
C        -6.93780420628046    1.62627534170364   10.45971136020695
H        -7.60256019768159    1.88887038165484   11.27229823559932
C        -0.41762560801822   -2.64663272389544    9.77211212297486
H        -1.06579223748018   -3.41227934361985   10.21925992844365
H         0.46233771552846   -3.14196905068224    9.35265153840924
C         0.04152412246291   -1.66512740531655   10.86600491864376
H         0.55732055985355   -2.22164806083561   11.66055997337196
H        -0.84049460241404   -1.18479595489397   11.29821466220316

