67
CSD_code = EMAXUL | q = 1 | S = 0 | Stoichiometry = C28H28N6O2P2Rh(1+) | MND = 4
Rh        5.05081048636424    5.85985102010234   15.49806978091611
P         5.99935136841948    7.64550875106803   14.62895689235912
P         6.50639935590494    5.40414729150843   17.08456156662475
O         3.52111839495983    6.13609305438183   14.17126556429078
O         4.04153472330740    4.17456689847206   16.05845303014047
N         4.86954157315808    8.74501159018239   13.92447505687391
N         6.96154960149752    8.74456396679486   15.47137234443905
N         6.95931337182804    7.24801447849722   13.30413186766271
N         6.58892311925929    3.72423531866271   17.47393470340105
N         8.15567931603126    5.74925789390283   17.01935296908582
N         6.04601192181046    6.07673923492285   18.55757592364391
C         3.05271218895782    7.07290715893949   13.51175767719409
C         1.76201596135000    6.84366974090780   12.77787864306230
H         1.44397611746078    5.81475566615809   12.92525552221064
H         1.88988135985603    7.03600934085703   11.71533044390676
H         0.99181034628543    7.51299571958358   13.15475602849709
C         3.64018204633525    8.37885232560238   13.38670152693616
C         3.11102605688861    9.49888490050096   12.75695317444669
H         2.16961683143082    9.55569393992276   12.24848004846990
C         4.02203001539885   10.54740954323069   12.91311846731896
H         3.91173886376082   11.54944240649907   12.55041295734781
C         5.08797642649078   10.05559613474943   13.62257107859872
H         5.97616415119821   10.56155426044271   13.95023167462030
C         6.47770202488822    9.38457279638577   16.59780370328581
H         5.43669924131547    9.31809554855124   16.85496230652272
C         7.49853667077322   10.05734064204637   17.18858749612723
H         7.43719330715857   10.66748767003495   18.06714083066013
C         8.66505361771014    9.80884257598200   16.42152424041718
H         9.64301373098812   10.19916907209504   16.61725226167410
C         8.31627530256683    8.99286212855368   15.39299885469937
H         8.91365679270074    8.56880263048722   14.61079299524187
C         7.61137584054877    8.04739398110332   12.38652006827526
H         7.59468665512637    9.11669680614423   12.46809939968944
C         8.19897483522433    7.24717494698875   11.45938167640863
H         8.78237191979888    7.56999975696011   10.62052287632535
C         7.89859462297683    5.90186234285447   11.79767634341005
H         8.21467034865228    5.03185443168820   11.25832075307564
C         7.13890680082673    5.93079139111793   12.92118923926021
H         6.67981240072923    5.13675721440864   13.49679259946803
C         4.30322773518369    3.11879198254267   16.64913895205448
C         3.25401780273022    2.04365967650270   16.67070730415909
H         2.35948405420285    2.40620816963600   16.17083274687930
H         3.01233166787866    1.76725363348563   17.69404762192851
H         3.61607395365788    1.15695083411125   16.15481730937347
C         5.53866504498795    2.82475946418185   17.32257805342387
C         5.92775362321685    1.62763402369394   17.91128021191386
H         5.34935388224466    0.72704947192734   17.96041623173654
C         7.21726197659703    1.80151482452721   18.42187698551057
H         7.80738842756561    1.06668907791302   18.93136261226335
C         7.59101178130471    3.09228445334832   18.14712325673455
H         8.51456222626888    3.59270586778544   18.36797844896787
C         8.94143484611985    5.25388453942934   15.99457022822060
H         8.56369646493603    4.48967265300252   15.34087466758450
C        10.15552163184302    5.85981462455654   16.04479248654935
H        10.98982669452505    5.67211131906208   15.39936241519577
C        10.11927694429536    6.78522834336280   17.11870398687392
H        10.92273717294923    7.42116267985238   17.43025995453437
C         8.88570797074450    6.71361242906295   17.68297943858493
H         8.46531124005085    7.26092341549149   18.50297961426525
C         4.90142935848827    6.84637288923584   18.66503487464655
H         4.30355198674486    7.04583271661459   17.78439842946239
C         4.73681089639690    7.20591098276166   19.96269342081360
H         3.94645785299503    7.80503588605540   20.36781806754106
C         5.81024872440733    6.63564818579983   20.69563586735369
H         5.97224648400148    6.73010893597861   21.75065754643732
C         6.58928310562739    5.94860049266227   19.82030246810317
H         7.47993874027004    5.37511385628142   19.98781421252162

