30
CSD_code = EMAYIA | q = 0 | S = 0 | Stoichiometry = C11H15ClN2Pt | MND = 4
Pt        0.73524407233570    9.18305094183983   15.18584799766979
Cl        2.60799711607734    9.79017011466636   14.17199281529237
N        -0.92538593440026    8.58840780216989   15.99240276915563
N         0.26581693269781    7.48423733523046   13.75687433481173
C         0.68518309390987   10.47311660369965   16.70947939772950
C         1.55421686069463   11.48903543431847   17.07656528527992
H         2.43007718195599   11.69298419593156   16.47777662299746
C         1.31230322173447   12.24995443514327   18.21281615836035
H         2.00242205815783   13.03585370556386   18.48474135954221
C         0.19712631191492   12.01478282375067   19.00525041433855
H         0.02351175759417   12.61665517774904   19.88542627760649
C        -0.68967203116847   11.01245927512752   18.66731250901111
H        -1.56327491790666   10.82146247865502   19.27518175896493
C        -0.45346280552975   10.24188513494950   17.52856681282228
C        -1.30934567892265    9.18237569099025   17.07206765254658
H        -2.22490394418604    8.90322134500162   17.58982581138501
C        -1.66361272485996    7.54125296021189   15.33486187776260
H        -2.40341689742571    7.99510591477549   14.66234639531555
H        -2.20932546279077    6.91749225413578   16.05502486726733
C        -0.68064882482547    6.67336989463960   14.53386608104475
H        -0.10066094980620    6.07745155154014   15.24481781129978
H        -1.23785307219300    5.98450147478066   13.87934380446194
C         1.40581465547611    6.67662761010500   13.33915906268036
H         1.90314523228520    6.25620050194902   14.21292637142021
H         2.12022452830999    7.31295494628648   12.81874807253191
H         1.09804480480411    5.85882483270505   12.67336251256231
C        -0.37073237752819    8.07301335243762   12.58336782736039
H         0.36276130259824    8.67263379021070   12.04525137053157
H        -1.19215223190005    8.72548048656048   12.87962932240100
H        -0.75914127710120    7.29713793487543   11.90796664584859

