52
CSD_code = EMAZOJ | q = 0 | S = 0 | Stoichiometry = C22H24ClNO3Ru | MND = 9
C         3.57767821602109    1.81903020072343   15.05230834009867
C         5.00521455744180    1.75883335624234   14.92993399112553
C         5.88494871310014    2.20195571076181   15.92542713421821
H         5.47758231197385    2.60016829630426   16.84128213464919
C         7.24577487336011    2.13126236922986   15.73749471169372
H         7.91195806837556    2.47654018240179   16.51421470417266
C         7.77096172351114    1.61739031621116   14.55326311127038
H         8.84081853127724    1.56503279909374   14.41657537817091
C         6.92717845765106    1.18083543135448   13.56061090404084
H         7.31850002202076    0.78497930877849   12.63660849270453
C         5.53681063302782    1.24243248458753   13.72543631267737
C         4.65703822413112    0.79390119068160   12.68058437227984
C         3.28974322871892    0.84001850651545   12.80222202008476
C         2.34789858626539    0.36620709918578   11.72439352538223
H         2.71616347009689    0.64657148573557   10.73200485332000
H         1.39553846009335    0.87625795668148   11.87557790519041
C         2.12105351495413   -1.14584038890434   11.79728371159066
H         3.05593281413395   -1.69336476364067   11.68916322679253
H         1.43893960685175   -1.46508374303768   11.01262177613336
H         1.68654306924215   -1.40394543295838   12.75974114368730
C         2.72635817409417    1.33773246000856   14.01107333888101
C        -0.42306685404664    3.72356262608913   17.37204758462673
H        -0.45666834354244    4.78930049988310   17.57342743429115
C         0.34968683179747    2.89165323860868   18.19251817842642
C         1.15829382706631    3.42651867522996   19.33040863265947
H         0.89378211629285    4.45754967048017   19.54971969045227
H         2.21665862749407    3.38784725837032   19.06386929870490
H         1.01276670405587    2.81726321773593   20.22074448687698
C         0.38342177561216    1.51091122726629   17.87540291687369
H         0.96818686963727    0.84058347059585   18.49740615656638
C        -0.42025491310065    0.98718493075369   16.84106439353482
H        -0.45562557678375   -0.08726599345058   16.68548983169907
C        -1.34652496973438    1.81690161898467   16.14379411456261
C        -2.28656768924211    1.22306575616352   15.12288950513797
H        -2.14901704294491    0.13576150991175   15.12575206115028
C        -3.74590194667552    1.52405034669476   15.47251558730947
H        -3.94293524903653    2.59254616211418   15.43856834498665
H        -3.98519576956730    1.15988608793086   16.46974380004765
H        -4.40368260385499    1.03384019212322   14.75911621221574
C        -1.92871291702345    1.74710501512049   13.72875756015877
H        -2.14554543321699    2.80935440662135   13.64673555785192
H        -2.49840472365564    1.21780735674975   12.96873797358751
H        -0.86584249988575    1.60022212643061   13.53916028926970
C        -1.30782185370047    3.18367651100756   16.39673760722535
H        -1.97811845373633    3.85710336099484   15.87731833717236
N         2.86097240662810    2.26960001551056   16.09873600849392
O         1.46651238474554    1.32207836990507   14.23225018189210
O         3.32694481682290    2.60612285925026   17.19590443074947
O         5.25793654658984    0.31618483069699   11.56859816941546
Cl        1.38217346214605    4.25563262260554   14.50807660026665
Ru        1.00365109353551    2.44642358095181   15.89176060770858
H         4.58726412097842    0.05971362272759   10.92202735791428

