45
CSD_code = EMCPTI | q = 0 | S = 0 | Stoichiometry = C22H20S2Ti | MND = 12
C         6.30576700156454    0.65984758275260    1.81866282642483
C         0.78371003036313    4.20810474370272    2.26251567925034
C        -0.08060561711035    3.15935195409877    1.99292491428963
C         0.41929509124902    1.91572729663400    1.65649858936680
C         3.30653420157923    2.27354614648882   -1.33752523056022
C         4.28948840227598    1.80096799186689   -2.24085219121788
C         3.74845694385971    0.70652609377539   -2.93530246403747
C         2.44642707558624    0.47556184554372   -2.44492433411782
C         2.16550384537127    1.45735555024591   -1.47383832993515
C         5.63431355062557   -1.45521961053407   -0.33039518131647
C         4.52993260668696   -1.85393247161700    0.44887025877283
C         7.69271684325393    0.57344360961971    1.90593907898122
C         3.46570139246853   -2.16568987235705   -0.43202228030231
C         3.92166121486778   -1.97211087454619   -1.74647390763038
C         5.25126540732173   -1.50588755013967   -1.68594817131942
C         8.28038919618999   -0.00593839972143    3.01429017131484
C         7.49347074101900   -0.49805065059353    4.04302733111943
C         6.11376716353907   -0.39730365772661    3.96325154416899
C         5.51573493188631    0.18217306222058    2.85942070312113
C         1.79510097996759    1.71568214698712    1.58154007002641
C         2.66351495945212    2.76355480478345    1.86995397742030
C         2.15307060828811    4.00409448599248    2.20522608601287
H         0.39109594495846    5.18015499151518    2.52126584186651
H        -1.14907179310401    3.30999101080670    2.04498604910925
H        -0.24470753322054    1.08826769553680    1.45089133200541
H         3.37785481558056    3.17572608250887   -0.74321213188983
H         5.24379614807985    2.27555126987261   -2.43497852915052
H         4.20921753513436    0.19975989792823   -3.77219630615433
H         1.72946265142632   -0.23302246333750   -2.83985178439889
H         1.19972814712031    1.63369465239939   -1.01774040605352
H         6.63760993360701   -1.27539646784969    0.03426411094060
H         4.53013705264454   -2.01549297220688    1.51933443155928
H         8.29580123979446    0.96626784919466    1.09994323667922
H         2.51164161103986   -2.58751328402217   -0.13948907190335
H         3.38383382462779   -2.23619340903081   -2.64669677675059
H         5.91540479663336   -1.35307330339028   -2.52727483304308
H         9.35687210730287   -0.07337768658508    3.07481230433692
H         7.95444138407168   -0.95405494005267    4.90647086754628
H         5.49640805146596   -0.76921690225825    4.76792573951210
H         4.43804196575171    0.26924419984091    2.80051373796947
H         3.73333211927248    2.60200075113236    1.83096559000023
H         2.83116322040006    4.81561414461401    2.42560075423928
S         5.59735594732674    1.45345642599864    0.41024389466186
S         2.39565589245727    0.10139872071246    1.19492832146215
Ti        3.91880836732339    0.13360950919163   -0.62354551237940

