47
CSD_code = EMEGAE | q = 0 | S = 0 | Stoichiometry = C24H8F8N4PtS2 | MND = 4
Pt        1.33831240399991    8.00776377413643    3.97115293923541
S         3.39848683678616    8.79577013496852    3.17226363210851
S         1.45197000915053    6.34722719109247    2.31163543962381
C         3.11824101727205    9.01223256056126    1.48514916118995
C         4.12642277797073    8.77255531777194    0.53766143105327
F         5.33828177461241    8.39871483411140    0.95966968966203
C         3.88625602717879    8.89620985358206   -0.81804158379676
F         4.86613522497435    8.64477884740580   -1.68762929616568
C         2.62353562249535    9.27115102555185   -1.29941869814456
C         1.62542561964198    9.55184586073116   -0.36032696940029
F         0.40389810384731    9.92022866966767   -0.77404918296546
C         1.88070992896530    9.44628534089135    0.98968847709130
F         0.90382687854746    9.75188509911755    1.88162248687444
C         2.36374880886849    9.36758575973214   -2.68422259687504
N         2.14604036840481    9.45166094150395   -3.80487227757478
C         0.27019482600807    6.83312770003597    1.14496303863509
C         0.44600369620235    6.42089855869032   -0.18966449671498
F         1.54523664105807    5.72020928141283   -0.50405072020718
C        -0.45921708520428    6.73274074037511   -1.18479520834442
F        -0.23577608858189    6.31498900721788   -2.43172968701391
C        -1.60912236393423    7.48307223354985   -0.90284650720711
C        -1.79352894196211    7.90926108184143    0.41632015195355
F        -2.87855429886783    8.61998787322000    0.73969056739999
C        -0.88389221989017    7.58823643027723    1.40386191081127
F        -1.11809523735743    8.03738543458504    2.66141952387270
C        -2.54964991130391    7.79741035732078   -1.90764789775244
N        -3.32831830580034    8.04204386535695   -2.71057657994721
N         1.04350803364724    9.47870724346217    5.33560262684039
C         1.67128116119185   10.65090412055089    5.35077374759917
H         2.54372277115365   10.73895756361393    4.71594764739089
C         1.25360738177570   11.70746072718930    6.14025102221407
H         1.79493677313585   12.63899592822859    6.12261986234351
C         0.13240353199036   11.54144204655780    6.94029769337097
H        -0.22990444016009   12.34737581412633    7.55901225036289
C        -0.51873089983899   10.32091201828740    6.92911708251279
H        -1.39883134832598   10.17321499103839    7.53280564578318
C        -0.04148843178997    9.29392402949871    6.11780169975692
C        -0.66228505014540    7.96903440113567    6.03011488460983
C        -1.65873095060641    7.51726113242705    6.89284604317814
H        -2.01765055836453    8.14747493569587    7.68953205215343
C        -2.17955401733155    6.24644683185622    6.72662843272014
H        -2.95343521769002    5.88365152451081    7.38467224653828
C        -1.68596822293645    5.44961726511252    5.70387875585826
H        -2.06228734847684    4.45335840689743    5.53917031833855
C        -0.69075194659641    5.95712659025449    4.88778327398034
H        -0.27711618550155    5.36645886384342    4.08005074745426
N        -0.19599714833747    7.17941779092357    5.04296721968870

