65
CSD_code = EMEGUY | q = 0 | S = 0 | Stoichiometry = C30H22MoO10P2 | MND = 6
C         3.90223562707694    0.73894099638368   10.99409493784039
C         3.42531436632819    1.94820573672911   10.51668099110221
H         2.76565455827026    2.53310503457364   11.13832589699360
C         3.78927641684207    2.37672943616372    9.25214300349672
H         3.42507658906299    3.32352139344291    8.88471448431497
C         4.62553827635197    1.59694143180775    8.47034587442044
H         4.92206093016446    1.93741060384784    7.48994356361540
C         5.08304731570466    0.38153436202020    8.94233391264984
H         5.74136346220000   -0.22389765800362    8.33729084295519
C         4.73175632717527   -0.06724525982191   10.21289192754227
C         5.18535160363842   -1.37382454431764   10.71438464655108
C         5.14254135553086   -2.49507588604428    9.88704145225362
H         4.76997885918627   -2.38166790355163    8.87992984719523
C         5.54377817414507   -3.73611807281548   10.34113249026558
H         5.49602280632226   -4.59152371230171    9.68465137333286
C         6.00121566843016   -3.88108316061642   11.64088679891748
H         6.31309270635136   -4.84803083697787   12.00552095867586
C         6.05458530427088   -2.78163050612657   12.47629548609502
H         6.40885823666634   -2.86842140703455   13.49235348163302
C         5.65300535038808   -1.53295738560946   12.02127690425001
C         7.42545259910142   -0.79915789219262   16.40008658966890
C         7.99187386996226   -2.02107371727991   16.07466559070508
H         7.98305523760798   -2.33524451949142   15.04239101956019
C         8.56717626620108   -2.80473317742734   17.05851383736418
H         9.01183825988985   -3.75320745058810   16.79783694455223
C         8.57436933113726   -2.36529283847225   18.37200181166361
H         9.01928660233041   -2.97416710630367   19.14444626335767
C         8.02790653388463   -1.13717138612098   18.69230121100692
H         8.06054562069696   -0.77840828454441   19.71026740677218
C         7.45344700366274   -0.32749240764160   17.71432697900764
C         6.94034216140510    1.00755040635074   18.06418613901110
C         6.17717124183638    1.22135813039092   19.20790826583942
H         5.89495195077861    0.37431090124262   19.81552075567092
C         5.76057393760626    2.49405305501905   19.55164259493093
H         5.15443434512724    2.64019043886093   20.43273735779633
C         6.12260954279714    3.57923424913962   18.77124398781268
H         5.80858272253174    4.57502096357538   19.04339181149719
C         6.87927356314676    3.38897265045268   17.62767005686630
H         7.17772294134975    4.22190433581306   17.00980871501694
C         7.27400010338691    2.10970127706719   17.27167549230188
C         6.37253126860100    4.28942573115044   14.39576051586529
C         3.96628467670738    3.62226297681823   13.34944479194614
C         6.25920945343024    2.60132144423005   12.16477609796724
C         4.64015677509840    2.42268449024690   15.71529365415859
C         3.22953975074051   -1.53771129569143   14.45986720584582
H         2.64177609012012   -1.57406611494719   13.54151952184764
H         2.56881369842958   -1.62786834514735   15.32183398521730
H         3.95170642238851   -2.35652441081010   14.46407079946604
C         9.33803770235476    1.80824837334183   13.35444006747906
H         8.72386667313125    2.64493183766702   13.00478540897094
H         9.80550078612503    1.31294493484910   12.50307981520937
H        10.10618583400888    2.19084959099512   14.02920520481859
Mo        5.50150571687789    2.60920208088276   13.96517968060380
O         3.51546787232114    0.29825982997530   12.25069678149225
O         5.81614527774308   -0.45224396611990   12.86643966017013
O         6.74920264727119   -0.09731758686588   15.41105743254720
O         8.04877124698768    1.91673951297206   16.14325045224314
O         6.90162047063524    5.27704253795814   14.62367618724550
O         3.05619460504143    4.23337109357719   13.02865189654710
O         6.65224551872692    2.53802216487053   11.09277847454605
O         4.06918944331723    2.23248642312091   16.68314410929852
O         3.89557027277340   -0.28378642018901   14.59690184437634
O         8.54697510429999    0.84037289094074   14.02272122158685
P         4.62093182388413    0.49948397281912   13.42091376162671
P         7.26370310038668    1.30770796381233   14.85204972431038

