43
CSD_code = EMEHEJ | q = 0 | S = 0 | Stoichiometry = C18H20BClFeO2 | MND = 8
C         2.19875710222336   18.75291115646431   11.33652947560178
C         1.57537934744069   16.61502758667065   11.89937400268321
C         0.07458322972464   19.81665190162187   13.39595762574240
C         0.42507362596194   21.25587914595775   13.60871104724363
H         1.27125470057051   21.35468152679275   14.28368491000072
H        -0.42439743681421   21.78696915513307   14.04212454726344
H         0.68075457664896   21.73756245269792   12.66853361932136
C        -0.64192831673054   19.29919979869970   12.27110264780474
C        -1.05964068791726   20.08722373519914   11.07035796188037
H        -2.02299338978676   20.56754004996092   11.25102708454933
H        -1.15694643427578   19.44524931301618   10.19863410729259
H        -0.33119162822173   20.86121335792422   10.84330706680875
C        -0.97668145622402   17.95026436347585   12.54481343602241
C        -1.83413194409090   17.06286958550234   11.69805229897375
H        -1.73492138482930   17.31637556312773   10.64566599325782
H        -2.88287252967370   17.17458299029515   11.97957753789514
H        -1.55789722835727   16.01902471308828   11.82378222548079
C        -0.47328510746444   17.62754573646637   13.84920437726375
C        -0.73694956031663   16.36522163944268   14.60831051035865
H        -0.94236217214081   15.54022688387964   13.93154835840878
H        -1.59738034155565   16.49134438229786   15.26770482252766
H         0.12312856829703   16.09767660749744   15.21795682621572
C         0.13229268014632   18.79614299707475   14.39491196684030
C         0.54107702406161   18.97686487984243   15.82222609517069
H        -0.33033206626087   19.25865997582666   16.41674118393082
H         1.29019626836689   19.75803976294303   15.92333089963962
H         0.94695550755891   18.05595543196752   16.23312850732938
C         3.53166975667703   19.20521568019363   14.27640023265173
C         3.65068629013371   20.40549160455757   13.56566836297084
H         3.16200029198700   20.48649736080770   12.60668769791804
C         4.37647101845680   21.47440789464903   14.05522301009444
H         4.45460482820717   22.38400490762231   13.47725703118157
C         4.99873675678290   21.38386530923120   15.28997829374789
H         5.56196650152470   22.21980833547240   15.67865273777971
C         4.89346981260455   20.21259889213136   16.02151454100543
H         5.37545923401794   20.13252385176237   16.98540642126446
C         4.17772611800951   19.14271479200690   15.51905823955078
H         4.10879543585054   18.23373357483344   16.09926700670711
B         2.67918978036367   18.00479730568508   13.75548044544152
O         2.87603501489102   19.02249211999624   10.44303973591942
O         1.87282295799228   15.62592512208249   11.39592571542952
Cl        2.93975482543256   16.49670677850648   14.49928964309471
Fe        1.16027043072757   18.14861177759489   12.58095174973612

