46
CSD_code = EMEJAH | q = 0 | S = 0 | Stoichiometry = C21H15Br4Cl2FeN3 | MND = 5
Br        3.89494140083570   -6.16081023305827    3.39796131337061
Br       -0.73521698251635   -2.95019771875521    3.12068803655755
Br        5.96188151253261    0.41759104783461    1.60233531626796
Br        0.35530297540417    0.48995208571080    2.21380656419062
Fe        2.59010876346532   -1.97967964068686    3.09274057389533
Cl        2.08029621448567   -2.36422485311176    1.06996482444775
Cl        4.59040390027072   -2.65871292510590    2.91648344333741
N         2.85826803474684   -1.60462121103547    4.79811279059447
N         2.01773197078412   -3.68816027251540    3.86462496991030
N         3.15154304963955   -0.11235652341071    2.89991605206054
C         2.69785912530915   -2.57194846980579    5.73775913393322
C         3.01691687384854   -2.34045769995254    7.07180101124513
C         3.52589589234797   -1.10391855105938    7.43918552825499
C         3.72470409060508   -0.12864514533071    6.47362262854316
C         3.38979198976359   -0.40603108560850    5.15229571988525
C         2.18696693052569   -3.77956026304720    5.15479292977119
C         1.82969646412035   -4.97595367423787    5.96969917061415
C         3.53363245796572    0.45281271506892    4.01183028596041
C         4.00410863729643    1.86324647242627    4.12274508156587
C         1.47646571927490   -4.68919473501068    3.06991289191831
C         2.17868022596751   -5.82509688668328    2.66719292732037
C         1.63709039919733   -6.70796856452327    1.74710958050742
C         0.37862785877966   -6.47375008841643    1.22278136112790
C        -0.35285231565235   -5.36538036222461    1.61971138402382
C         0.20434320544437   -4.48991673266618    2.52759499364010
C         3.11504285078021    0.52432071922544    1.66716953704891
C         4.24334261456362    0.77204093955419    0.88574692879881
C         4.12254081110609    1.27389813765490   -0.39998802967827
C         2.87009984361221    1.54474322666839   -0.92106964287863
C         1.73079302009734    1.32667702721352   -0.16226432111411
C         1.86682679483509    0.81667252989904    1.11143043457758
H         2.88962234541695   -3.12396867878915    7.80046698441168
H         3.78661247151578   -0.90924669883884    8.46724867420326
H         4.15381726042198    0.82528788984541    6.73226718575703
H         2.73952903180554   -5.47723698278053    6.30050228147851
H         1.26298311181292   -4.67613869227899    6.84888062480697
H         1.23954121999463   -5.68101252322094    5.38824434304274
H         3.50843959758930    2.36087479196933    4.95370931859862
H         3.80340361879408    2.41398558528550    3.20608523456772
H         5.07903303726149    1.87611131085443    4.30460594932995
H         2.20844720184703   -7.57153107309863    1.44504948587522
H        -0.03594811226896   -7.15772697971317    0.49955267197071
H        -1.33637313270299   -5.17402462416420    1.22163495970981
H         5.01218056737814    1.44496136407864   -0.98532830299290
H         2.77915900258049    1.92689632726346   -1.92526068250499
H         0.74931844912000    1.53639971856033   -0.55605214795062

