65
CSD_code = EMEPOC | q = 0 | S = 0 | Stoichiometry = C30H28Cl2O2P2Ru | MND = 6
C         8.34410252732145    4.15300327626225   13.17118138409412
H         8.44387986363401    3.77966592463508   12.14612418106795
H         7.47745248547121    3.67687628781969   13.63873069426776
C         8.12124410355985    5.66409947407378   13.14784162468005
H         8.95183554506488    6.15919971651911   12.63513469193285
H         7.22113354173639    5.84300605929288   12.55378321802093
C         7.92287630989458    6.27852514791771   14.53741132541314
H         7.40731341712221    5.54949259312406   15.17297016034109
H         7.26654395798011    7.14592393181013   14.44891793051253
C         9.24070817032085    6.72105261752680   15.19221059294076
H         9.19400346200449    7.77144990183175   15.49862398905057
H        10.06988730021425    6.60310449120433   14.48757172469150
C         9.83791557585157    1.53678631355668   16.34705308564193
C         9.49562765859383    3.17103767177669   18.29551995552526
C         8.44854018769892    6.43442986064974   17.88845255194652
C         7.36111411572313    5.69855767720597   18.34263101258402
H         7.20045274764512    4.69108742156861   17.98288716394859
C         6.47245091319952    6.26021453356267   19.24379942391397
H         5.62916241614537    5.68302507658485   19.59227618003824
C         6.66562694353858    7.55331873558681   19.69729681157741
H         5.97490593496839    7.98844382780706   20.40432310131758
C         7.74879502221120    8.29161770262252   19.24523010609810
H         7.90201428261984    9.30068673809779   19.59935143425968
C         8.63705226296078    7.73769109374963   18.34426920619580
H         9.48823702898825    8.31052695071740   18.00041642583884
C        11.17658487720447    6.44048527917958   17.32289595613169
C        11.59007670289868    5.98295092985604   18.57224368526487
H        10.98426581756788    5.25138406029054   19.09375973137342
C        12.76101431671971    6.44821208673626   19.13540594298115
H        13.07740283028038    6.08336128654548   20.10100319727559
C        13.53405748189806    7.37508828308807   18.45356761841633
H        14.45488529340916    7.73496526009899   18.88787912584734
C        13.12789800996026    7.83446355070086   17.21332825873460
H        13.72965916018879    8.55654193064567   16.68031681634605
C        11.95353235132333    7.37095919738160   16.64410081484892
H        11.65639108220188    7.73711047837481   15.67214181527730
C        11.18006904539510    4.39389746917350   13.21440853010036
C        12.10250869898158    5.18251789520069   13.88997058150220
H        12.05613688410911    5.25898424793898   14.96821623809750
C        13.10828649039818    5.82858199964493   13.19137483187401
H        13.82498234770014    6.43395585730987   13.72657172070334
C        13.19843513784252    5.68977854483687   11.81727713936542
H        13.98259360788515    6.19339567427472   11.27147100042293
C        12.28879762516693    4.89073090632233   11.14081641833964
H        12.36688323918494    4.76975855994146   10.07019823226763
C        11.28454714364383    4.24250238479914   11.83349797227739
H        10.58865723314504    3.60504876659470   11.30521078162855
C        10.01026735701164    1.86271067253626   13.48089841509146
C        11.29449862153062    1.32005804451513   13.46609380388657
H        12.13534017045603    1.93613321029835   13.75940046966727
C        11.48446528262202    0.00171985433383   13.09923716587172
H        12.48086892442338   -0.41467777801611   13.08946303677853
C        10.39695881762773   -0.78661057897371   12.75672808106929
H        10.54561182663495   -1.81840915763212   12.47478197162779
C         9.11807939507819   -0.25683066176709   12.79224942606199
H         8.26871552615449   -0.87594488867624   12.54311788611590
C         8.91866306906459    1.06311591864595   13.15790667568371
H         7.91545059456548    1.46096528314797   13.21048497717338
Cl        7.31926767319561    3.06931682225872   16.10081296081932
Cl       12.09166100942154    3.39448234360945   16.65980573965093
O         9.35594240422895    2.97583813169788   19.41037375698539
O         9.93937961463693    0.40432844908764   16.35823331939937
P         9.62691335354345    5.72663854807621   16.69183369940168
P         9.82383718512293    3.56077217663160   14.10249919681285
Ru        9.69013802310791    3.38839593579289   16.46391503292761

