126
CSD_code = EMEQOD | q = 0 | S = 0 | Stoichiometry = C64H54AgO3P3S | MND = 4
Ag       11.61999741734399    6.63769334376068   13.73891152167006
S        10.39841412937316    4.50858213797568   12.97591238265001
P        10.53407393471169    8.85318317785532   12.92035333840168
O        11.83137954251195    2.55146169092881   14.35237081955752
H        11.62072406899691    2.96356590555951   13.46748390620430
C        11.01344290391622    3.12991260605714   15.22841855302851
P        13.72326766554682    6.58564155144976   12.13546228074451
O        11.06013696801264    2.87829781174229   16.41199152686247
C        10.05217831866961    4.11394649396181   14.64162629163127
P        12.34246575566355    6.70197625436449   16.21918384731064
O         7.31024126460575    5.23496472048790   17.40969291615619
C         9.00818578959044    4.50873700704297   15.41118584485407
H         9.00414616232921    4.09341205658619   16.41082905872802
C         7.91178164972916    5.39684676941773   15.12485034023157
C         7.03438561073882    5.75906545201914   16.17818051422780
C         5.96198531381010    6.59931730905428   15.92828149621640
H         5.28812514285935    6.88215517579440   16.72245983365305
C         5.73090748504831    7.09363403934769   14.65289606980178
H         4.88861752415966    7.74817039041261   14.48169305067391
C         6.56552103461243    6.73783763624701   13.61305944838558
H         6.37529187530401    7.10733212904211   12.61566524186707
C         7.63639423581037    5.89754716958151   13.85213135107246
H         8.25854085404485    5.57489637762014   13.03314219917476
C         6.40606944076518    5.46830766796327   18.45635624401763
H         6.77876341674309    4.89408945013966   19.30298822047456
H         5.39748626569934    5.12304969012796   18.20470570547525
H         6.36850776261260    6.52862331423741   18.73107316376339
C        11.53068498784533   10.37925381144543   13.00575078448366
C        12.72560582679916   10.38072992698484   12.28883289005554
H        12.98423384408595    9.50989286945585   11.69945202276264
C        13.56429361554017   11.47694500085573   12.32489958092538
H        14.48808383023531   11.46690183292166   11.76500602856058
C        13.22089153492392   12.58365543606792   13.08566472501587
H        13.87502131323864   13.44248624534452   13.11772902074354
C        12.03961192900152   12.58425617402648   13.80892341138435
H        11.77113183690394   13.44549098724533   14.40420977560068
C        11.19613703841856   11.48681098701256   13.77594345025883
H        10.27998135458080   11.49343959775670   14.34951140993632
C         9.09011733019643    9.28226953920409   13.94517799060885
C         9.01949076485002    8.74329088367824   15.22452741545109
H         9.77914547872174    8.04153159805880   15.55252872726067
C         7.98514264420942    9.08686159130363   16.07354266885412
H         7.95079839588082    8.66956988846439   17.06893941320784
C         7.00070881308783    9.95801552951209   15.63888343291064
H         6.18698757683498   10.22626540593124   16.29641611868001
C         7.05176356719492   10.47988846100675   14.35571812535260
H         6.27694430821717   11.15149676862632   14.01516710530136
C         8.09358182973509   10.15047567176162   13.50888711032074
H         8.13835194510949   10.56385041562471   12.51044240745016
C         9.82529603506334    8.97704318297815   11.24492585061841
C         8.89976322032675    7.99140783994581   10.91034695966247
H         8.67173276633627    7.22124304496824   11.63263608604708
C         8.28857758199260    7.99846077787518    9.67266996160235
H         7.56497161469659    7.23593098794887    9.42405170432026
C         8.61284891877214    8.97870339619975    8.74775577017718
H         8.13995768743138    8.98488480736205    7.77659901149633
C         9.54958261618817    9.94611153519838    9.06805933331871
H         9.80818863241636   10.70759590767113    8.34673850046225
C        10.15541300905494    9.95241049811390   10.31261175417859
H        10.87833488453821   10.71837951833329   10.55304072093495
C        14.47016722310986    4.95209161333081   11.80742190853003
C        15.53629291083687    4.54637147801916   12.60909116354028
H        15.94297597949978    5.22629826780629   13.34690450348328
C        16.07440377657795    3.28233307081711   12.46295609045166
H        16.90827066313200    2.98045797531381   13.08055714400515
C        15.54352824082242    2.40352183494753   11.53228570263740
H        15.95961287888173    1.41293053019860   11.42425528722939
C        14.47300011653802    2.79660239526880   10.74726672453817
H        14.05095314220391    2.11178368923676   10.02654656652823
C        13.93347905760913    4.06341402850041   10.88284713968108
H        13.09498055300581    4.35860309858822   10.26960236388630
C        13.12426674703862    7.07019496015420   10.47958586229777
C        13.78277236426947    7.95912625310403    9.63729976694011
H        14.71935215510429    8.40678203901877    9.93875980098640
C        13.23344518086143    8.28296111500651    8.40908090491375
H        13.74807246516695    8.97889296401148    7.76217024496701
C        12.03585608675187    7.71742847420355    8.00583776766700
H        11.61744904082501    7.96647074311611    7.04197965798305
C        11.36998852203722    6.84046846174161    8.84587894840971
H        10.43100381075380    6.40403145352781    8.54081575685490
C        11.89919670958372    6.53426153734997   10.08480813720911
H        11.35915430787300    5.88126570698715   10.76030976719655
C        15.22874928543613    7.59786662220704   12.34116264814398
C        16.36200617638698    7.42405655677451   11.54975260185182
H        16.37467988605689    6.65447764863017   10.78992303489795
C        17.46752409179728    8.23055019430568   11.74372457818699
H        18.34439249268287    8.09639441279054   11.12689387981758
C        17.45510894943469    9.20970163306232   12.72625437360596
H        18.32298523029430    9.83593644522378   12.87232265490552
C        16.33502908809374    9.37866766669876   13.52208036229311
H        16.31964528007744   10.13296254776580   14.29498582580518
C        15.22689220724049    8.57294938371864   13.33053899336525
H        14.34868314712520    8.69476437894609   13.95137145194785
C        13.39106866985694    5.28200658889557   16.65398191129228
C        13.87614195253417    4.50273356639738   15.61152997922482
H        13.62577096312378    4.76720807707983   14.58812055427889
C        14.64569885092740    3.38429883560530   15.86953745517532
H        14.98987981674435    2.77158446732227   15.05019667003043
C        14.94226772710851    3.04329362490761   17.17737172437726
H        15.52821995637995    2.16041941654064   17.38629085344042
C        14.47621892801506    3.82563079772990   18.22276563179544
H        14.70673761334109    3.55638403302124   19.24354589177659
C        13.70166191864015    4.94086870179234   17.96853403271335
H        13.32384914210327    5.53818120316700   18.78742693359779
C        11.21681285986864    6.79201579630786   17.65319871511931
C        10.67838064006738    5.60488457774152   18.14557948679051
H        10.96043724539510    4.65660025759438   17.70990297467275
C         9.78732520364420    5.63825261938598   19.20110241880912
H         9.39042516544053    4.71101612258147   19.58533456760965
C         9.40699477983706    6.84805728176855   19.75839165126233
H         8.71022521156298    6.87196797286760   20.58409011623942
C         9.92191767863456    8.03051971701239   19.25379018693149
H         9.62555392594357    8.97846925066547   19.68119195133982
C        10.82338820179715    8.00741786771595   18.20467131850083
H        11.22628269100740    8.93671125291156   17.82572468647677
C        13.43783856236210    8.13096668379523   16.54269970838157
C        14.67525407552107    8.02822897741673   17.16570873072095
H        15.03566516952259    7.06581233684284   17.49857590403514
C        15.45186962231507    9.15820456653997   17.35334782133123
H        16.41348779176946    9.07053031453200   17.83793916739194
C        15.00420518359684   10.39620002068724   16.92350716094814
H        15.61334111472667   11.27532272805715   17.07593945015475
C        13.77704606598266   10.50454248207821   16.28913189546523
H        13.42671850518955   11.46327507763899   15.93539678337167
C        13.00389134855905    9.37648708167772   16.09310717903406
H        12.05619738570709    9.45399108061384   15.57120043997938

