122
CSD_code = EMEQIX | q = 0 | S = 0 | Stoichiometry = C63H51AgClO2P3S | MND = 4
Ag       -1.46312847069035    4.00889117089225   10.34527896679625
S        -0.09318192515311    4.67425554551677   12.44894129112747
Cl       -5.01629412135220    7.53816501370386   12.57232115803472
O        -0.49161388786197    8.34595858067453   11.31335644994656
O         1.22413620760376    6.94695809712598   11.49478284040035
H         1.31630133458393    6.00979669671329   11.82322356794081
C        -0.05451923887851    7.27014794696027   11.65161541734490
C        -0.90295814787102    6.20555397934200   12.27945748869415
C        -2.14663505885172    6.54849060304603   12.69801902886045
H        -2.44179614626523    7.56195033193983   12.45432130171094
C        -3.12125444101963    5.76333718508068   13.41238946880846
C        -4.47116260491943    6.14835801663727   13.45378602858403
C        -5.41167136315317    5.44415549522585   14.17893459579997
H        -6.43539748708006    5.78541101849700   14.19138299728757
C        -5.03913102753700    4.31010771969275   14.88021221732619
H        -5.77796457420719    3.75811011317668   15.44129980330332
C        -3.71561730628062    3.90557844194205   14.86521022940470
H        -3.40937984045450    3.03195856100645   15.42223374287381
C        -2.77818199844539    4.62540330860994   14.15402230526698
H        -1.74012649791862    4.33928039395846   14.20116237553998
P        -3.33152383571461    2.30433221542709   10.94131800062810
C        -3.09155853740013    1.06685134184848   12.25839405329935
C        -2.13707544128589    1.33623858865619   13.23298210838170
H        -1.56348306968193    2.25149113026634   13.17555581064198
C        -1.91562635052251    0.43806405269596   14.26119541437540
H        -1.17038206257015    0.65428300901101   15.01260692082653
C        -2.64533111641428   -0.73740948516243   14.32118066203694
H        -2.47437996382540   -1.44148775796139   15.12239935313641
C        -3.59202748582070   -1.01508766479884   13.34746374293047
H        -4.15793449355194   -1.93461931776610   13.39104333480334
C        -3.81649232545361   -0.12088795556151   12.31695092808234
H        -4.54682861672262   -0.34943172976901   11.55248858163120
C        -3.85876253093098    1.22236785434676    9.56522102049818
C        -3.03133715999591    0.15418901359307    9.22340784049863
H        -2.14418709767724   -0.04032186687352    9.81159947414941
C        -3.34569242797664   -0.65696932522281    8.15044285262245
H        -2.70462469452456   -1.49088312172461    7.90174437584294
C        -4.48073686083020   -0.40347736940879    7.39622287024654
H        -4.72625682491537   -1.03706485275207    6.55666581678169
C        -5.29928268075911    0.66438932924298    7.72333400254518
H        -6.18588136901685    0.86572739247815    7.13923481624651
C        -4.99167696655108    1.47759166786163    8.80019493929686
H        -5.63575258414225    2.31006269630649    9.04676182183775
C        -4.92008894256313    3.08648576355208   11.37864864001499
C        -5.19915831524206    4.31152588982668   10.78075022554365
H        -4.44717236346473    4.78423245289604   10.15733961571269
C        -6.42095939045447    4.92631513086961   10.97511871247933
H        -6.62555587523951    5.87467659842067   10.50109890179099
C        -7.36901349147378    4.32629162170376   11.78707456894911
H        -8.32582255450109    4.80257627941355   11.94277336826637
C        -7.08505351708984    3.12203652425885   12.41015004014658
H        -7.81919998837139    2.66255035679063   13.05604127695594
C        -5.86640983557418    2.49932457308099   12.20997506548551
H        -5.65166034912757    1.56309090868624   12.70395363750619
P        -2.17099878700039    5.99401889124797    8.80548179173547
C        -3.51011398257449    7.21566825808398    9.00423885316827
C        -3.28102024715269    8.35929339146142    9.76606375274280
H        -2.30607783241125    8.53378962868717   10.19994427844993
C        -4.30126212613005    9.27155268746332    9.96355875882997
H        -4.11526518211508   10.15966857234971   10.54919825661457
C        -5.55706094742356    9.04482344437309    9.42443732198680
H        -6.35292437833223    9.75732902429215    9.58528959126875
C        -5.79325095782371    7.89673828950749    8.68655162715279
H        -6.77346979863966    7.71241221543702    8.26889318418995
C        -4.77763683356382    6.98133010761504    8.47741484744170
H        -4.96989721390610    6.08673659512510    7.89916484119369
C        -2.65568934811533    5.28072060036090    7.18916664574489
C        -3.13277443566606    3.97653292482140    7.16320896950206
H        -3.14424879365044    3.39553637649051    8.07958608488385
C        -3.59460348369088    3.41855829628737    5.98617481075799
H        -3.97022815000199    2.40588076145441    5.98576412712324
C        -3.57063279034444    4.16116848986704    4.81851646753884
H        -3.93335224447240    3.73099689940675    3.89672377586764
C        -3.07718746531645    5.45615905862938    4.83205470219096
H        -3.05269917593211    6.03340707610339    3.91905174688023
C        -2.62378185995184    6.01796738024354    6.01059520417366
H        -2.24430642610474    7.02944404178013    6.01734459716720
C        -0.74906868244064    7.02819099668958    8.32463424036120
C        -0.85243566739578    8.30478617056635    7.78107457534569
H        -1.82089017884931    8.76650776820540    7.64771974530350
C         0.29288334150463    8.99935334055176    7.43799724731657
H         0.20850014972549    9.99517397055770    7.02722610658868
C         1.54329400576197    8.43391648039825    7.62866924482336
H         2.43190945496492    8.98953329165705    7.36792366845309
C         1.65300287510106    7.16461683815850    8.17026188448028
H         2.62274613177620    6.71920372529911    8.33861250861963
C         0.51013234426514    6.47192351708634    8.51827734175564
H         0.59016562124031    5.48776834921440    8.96926600117914
P         0.26223194656535    2.68513887887316    8.80853935874949
C        -0.14945600721052    2.50751718096894    7.04691643969286
C        -0.79401951397812    1.37636722441326    6.55790957259449
H        -1.01868031193575    0.55620845536079    7.22435188685710
C        -1.14446137349417    1.30061602422276    5.22253302817372
H        -1.63277146495136    0.41272539736913    4.84755661660484
C        -0.87106743448889    2.35555826799398    4.36841260449538
H        -1.13490853488430    2.28904922944260    3.32342388106729
C        -0.27044904270649    3.50365676387630    4.86004715873835
H        -0.07536261296600    4.33748650689037    4.20185220310834
C         0.07757807206377    3.58686083459584    6.19383916658450
H         0.53511976410174    4.48862179945820    6.57975513008348
C         2.00965591738167    3.22635967260257    8.76690810929014
C         2.52403599943671    3.71956028161636    9.96294908177118
H         1.87899521932784    3.78115782980209   10.83117111029440
C         3.84074445272755    4.13134633568832   10.03994313840626
H         4.22886062311921    4.52339647485417   10.96803231977521
C         4.65611046982162    4.04572659891950    8.92305449373563
H         5.68404575751193    4.37285178899439    8.97651118435044
C         4.15247796385410    3.53878048050476    7.73630369872407
H         4.79004224069378    3.46441622100345    6.86700125020414
C         2.83452209649155    3.12565236488688    7.65297067901273
H         2.45228082982459    2.73579201267046    6.72031775266475
C         0.58492587401871    0.97172121168704    9.35364707398956
C         0.19153305750677    0.62514515284460   10.64051331612905
H        -0.31121990103959    1.36524761106798   11.25347145200335
C         0.44008210310404   -0.64399618993926   11.13190095306884
H         0.11935671258598   -0.90665621234975   12.12967238608208
C         1.09433136710421   -1.57093409182903   10.33803750592080
H         1.28754293450318   -2.56480160781717   10.71404014216478
C         1.51093394529209   -1.22180854662084    9.06194029416999
H         2.03389635339155   -1.94267704517467    8.45019835864419
C         1.26509139952028    0.04594738554943    8.56869453411031
H         1.59684987837033    0.31763608419564    7.57651324784390

