110
CSD_code = EMERUK | q = 0 | S = 0 | Stoichiometry = C39H63FeN2P3Si2 | MND = 5
C         9.67903650886358    5.57180845843862    7.09624998818737
Fe        6.84392740116332    4.02505398628496    5.88206140582521
P         5.36709527896531    4.14414471162579    7.57828933740135
Si        7.76974035105927    5.69231077466987    7.07625568032010
P         6.79520289524606    5.67100845938188    4.34038696942839
P         8.84658635081255    3.10966339177647    6.33417081529070
Si        5.08946254051252    0.64610748665841    3.56747304830447
N         6.15572821932645    2.86420218569349    5.02447492619060
C         6.21201263128254    8.49118586454457    4.50974948351034
H         5.70994162637198    8.45934181681614    3.55356255133563
C         6.73184197791513    7.34149278918574    5.09057670389191
C         8.19120916387254    6.01474896435426    3.11465215050127
H         8.31642207962172    5.07159016180448    2.56756114922160
C         7.32425795303032    7.40639762320879    6.35539994942425
C         7.17792790160501    5.67157353314593    8.89486287863797
C         9.54330923445242    1.96244726894697    5.02483388186495
H        10.60708381190355    1.78728691816962    5.21751915501306
C         6.10186018729011    4.80731947131975    9.11953695373339
C         7.77834669541663    6.30477717316605    9.96665257480819
H         8.61845385512319    6.96111812893451    9.79394185639790
C         3.83322188072810    5.24529472371083    7.55630681035313
H         3.27733724810850    4.92520949179775    6.66576368257187
C        10.16061518879546    4.35762446746551    6.59700589808792
C         8.91964962876171    2.88464936402713    9.10880857580957
H         9.01079729265227    2.27040445324863   10.00433382080980
H         7.91258688170932    3.29005490860830    9.06843586473630
H         9.61504873515793    3.71858964352246    9.19481529301236
C        11.52324109837263    4.18233386804133    6.39287355669060
H        11.91331452398427    3.26980210614775    5.96539379368752
C         7.32625471884412    6.08533806297434   11.25763675220054
H         7.79943647023648    6.58285751635346   12.09238830149428
C        10.57084743232524    6.57923119750968    7.41246483579625
H        10.19822564018003    7.52237033861420    7.78405064242502
C         9.21300889263283    2.06048857596809    7.86248197792337
H         8.48854711462043    1.23762527483226    7.81386691606027
C         6.91762542370232    9.77419239184897    6.41506619926913
H         6.98926957876856   10.72317521284000    6.92746157108567
C        10.61966290651830    1.47786061988228    7.97205369645007
H        11.35998315373859    2.27198406909870    8.03621329936834
H        10.87182035796572    0.82440771497958    7.14149527726758
H        10.68379441036263    0.88864465255681    8.88703597326854
C         6.30560043718572    9.70272242152268    5.17560344790679
H         5.89454715684465   10.59447832122564    4.72323269980239
C         5.35433646948452    5.65124111014471    3.13970597120953
H         5.29370123389615    6.62577049470701    2.64241617952440
C         4.56173401379983    2.53307203801106    8.10319784590045
H         4.09830146806258    2.66744375437215    9.08687989321893
C        11.93229197586230    6.39635924432088    7.23222801033024
H        12.62535443237592    7.18807979879318    7.47939697621591
C         7.41393855649591    8.62312618057333    7.00472351189303
H         7.85803748817663    8.66949882158941    7.98807067025731
C         9.39131481221539    2.62027464587876    3.66052255357746
H         9.67931720116290    1.93253006855394    2.86577195460111
H        10.01749520558534    3.50678435662687    3.58971074632504
H         8.35063086253448    2.91220245031360    3.51018609573742
C        12.40363807856626    5.20444779023591    6.70944574213731
H        13.46318712682825    5.06840238152692    6.54303721301816
N         5.55709823641756    2.07273882909414    4.37083026001149
C         7.96185340933448    7.14331911477489    2.11268898117470
H         7.85333514815406    8.09582742542789    2.62624390565198
H         7.09223204385172    6.97889922499760    1.48270644081068
H         8.83304621472178    7.21417743271758    1.46115443039941
C         2.91436810952002    5.16459011293625    8.77262010045010
H         3.43360049591777    5.49890042805496    9.66785444519032
H         2.52408119127448    4.16504757156587    8.94210552903316
H         2.06457534807341    5.82859577045676    8.61337575034837
C         4.06561871134619    5.41823970706887    3.91670335912981
H         3.22418542538023    5.29158201108780    3.23617835984057
H         3.85381709252456    6.26096914657383    4.57098764146825
H         4.16041832304363    4.51727516587906    4.52340313140636
C         5.63810167092488    1.46164385338352    8.21132659528885
H         5.19366692857898    0.48571900046041    8.40503190610686
H         6.32762041304329    1.69067268580826    9.02078922939780
H         6.19894947642253    1.41138704411027    7.27665828796140
C         5.66435698856739    4.56767472538332   10.41582749264668
H         4.86471237294545    3.86977036915577   10.61821059770625
C         9.47163623188863    6.29352279457325    3.88991880978965
H        10.31946888042615    6.38100776404346    3.21094418294219
H         9.67279948202378    5.49041359033161    4.59315848835339
H         9.38889464462619    7.22173390801732    4.45382305298478
C         8.79035598203573    0.63526044849315    5.06113651279633
H         7.71837145137804    0.81822525928801    5.05468619313140
H         9.03655285491011    0.05170953217250    5.94506465688849
H         9.04005878345148    0.03712171364802    4.18486158076661
C         6.28009133414353    5.20663922894378   11.48003867066558
H         5.94099654828517    5.01349123475023   12.48826991835943
C         4.26667607000284    6.69140181035554    7.35781629687488
H         3.39890851832547    7.33598770089454    7.22016345959546
H         4.90640985123729    6.78027889507380    6.48430997747142
H         4.82485257981460    7.05044474444203    8.22151479893508
C         3.49318207357682    2.11301574739985    7.09573467742237
H         3.90492666171251    2.09486593360620    6.09013446492021
H         2.63808364649524    2.78446094405787    7.10654108808889
H         3.13461242619959    1.11118480589527    7.33343579120972
C         5.54352748702609    4.56143614112296    2.08630494755828
H         5.71387340575018    3.59931820048088    2.56172503000612
H         6.38048379625847    4.77505121234123    1.42583771210825
H         4.64520698858280    4.48139655081340    1.47385670462712
C         5.22209022788320   -0.87164517101078    4.71716882205617
H         6.24969771266252   -1.19913357182150    4.84260516536724
H         4.65899135720937   -1.70778642186729    4.31392983761468
H         4.82429204601639   -0.65455572439901    5.70380184299171
C         6.16997135955450    0.40485451915614    2.01473624020122
H         6.02962360344657    1.21648813581839    1.30676340649169
H         5.91421214133439   -0.52014840955284    1.50723259661877
H         7.22656176566199    0.36443727154212    2.26049909201186
C         3.27463203808627    0.92981075877288    3.06736090565758
H         2.62276602450116    0.98699318161162    3.93402484934527
H         2.91739261147880    0.11775358923571    2.44206826887270
H         3.15560005283413    1.85218236244925    2.50704180384857

