123
CSD_code = EMEREU | q = 0 | S = 0 | Stoichiometry = C63H52AgO3P3S | MND = 4
Ag        4.94999663420593   10.64687841637614    0.72520716644758
S         7.22337220078721   10.41917330556425   -0.50082924100410
O         7.33503228531715    7.99115645180005   -1.91721685395709
H         7.79270656235297    8.56181727595461   -1.24609844748954
O         5.52873731958374    8.26437438004166   -3.18760740467491
O         3.85005860486518   12.36290818361426   -4.34637687222286
H         3.29921180852018   12.94532449956386   -4.88250627554927
C         6.34654738057768    8.72533711312570   -2.42316082678030
C         6.31192735587782   10.14499236612154   -1.95986998539152
C         5.65085109600635   11.03683831574834   -2.73873014688782
H         5.18166269887097   10.61046085567043   -3.61798920034376
C         5.45481413683345   12.45460333727620   -2.57715980996714
C         4.54302225912921   13.10863670064701   -3.43664889310342
C         4.36474959729704   14.47821129777179   -3.36029885602215
H         3.66981291626954   14.95961648149451   -4.03869884732878
C         5.07029924536216   15.23458139935780   -2.43779006843123
H         4.92908490166355   16.30459632685081   -2.40207990634750
C         5.95322125603107   14.61059913085395   -1.57749610216695
H         6.50793830740603   15.19041133301693   -0.85418203416748
C         6.14018724700549   13.24327095232508   -1.64931435594870
H         6.87494881698245   12.77834131908236   -1.01394766861819
P         4.10687393966883    8.15319365349539    0.84868524321361
C         3.67590808563153    7.67958581773420    2.56318631251695
C         3.28410661021828    8.68376367599568    3.44182636425321
H         3.23914763527669    9.70765633674871    3.08812950526540
C         2.96014756069150    8.38438630253148    4.75243497804378
H         2.66044504554791    9.17542999723732    5.42437158108716
C         3.03346687063722    7.07429453227777    5.19602698191443
H         2.78827744555715    6.83625951132970    6.22057743669921
C         3.42492927162702    6.06840348534703    4.32575551594068
H         3.48209672722393    5.04707287933272    4.67341238293952
C         3.74491135856856    6.36503642220985    3.01336204765906
H         4.05293992110732    5.58009296337325    2.33696007698297
C         5.38064694785021    6.90233958564010    0.48892226309054
C         6.65769806619645    7.18644496969537    0.96462001984031
H         6.84045926435200    8.12819126190070    1.46887520156716
C         7.69007371763205    6.28992723153852    0.76984628794622
H         8.67847163915228    6.52279365102420    1.13861697397482
C         7.45684186356933    5.10871632165181    0.08536341337488
H         8.26499882502204    4.41226796557856   -0.08246044150004
C         6.19006484810915    4.82730725399284   -0.39795426735231
H         6.01028939557527    3.91110460126169   -0.94143778928821
C         5.14901493599120    5.71567022064262   -0.19650032764899
H         4.16470915579933    5.48961966960548   -0.58157633005611
C         2.66077366940079    7.54911665975617   -0.07824046537710
C         1.45151886369247    7.24462016781642    0.53945996505596
H         1.36702654132956    7.28993226849660    1.61699087848401
C         0.35915769686400    6.87297337692238   -0.22375066745817
H        -0.57703215339147    6.63651261497456    0.26172441508813
C         0.46404219606598    6.79907474705930   -1.60253230492267
H        -0.39043494647472    6.50401835966785   -2.19368801689228
C         1.66681629680593    7.10078547498387   -2.22084976254731
H         1.75631000256543    7.03532718741074   -3.29454113646960
C         2.75918123445776    7.48763593787927   -1.46795082389629
H         3.69281782870690    7.72786475938094   -1.95939611893651
P         5.93529881550926   11.38774518719345    3.07272637428241
C         7.32267032871409   10.32299415625602    3.58572780313361
C         6.99660654328460    9.00147625167875    3.89092733314829
H         5.96001371054650    8.68859967393152    3.85134543372475
C         7.98346104324673    8.10216537053476    4.24360303965230
H         7.72043714297622    7.08001336545831    4.47433882951799
C         9.30746956040409    8.51126656960762    4.28568640902348
H        10.08244367192115    7.80794385311385    4.55261008179622
C         9.63544545535589    9.82151758909615    3.98170026845413
H        10.66679713292285   10.14134574464436    4.01403295522376
C         8.64998478042260   10.72897180587568    3.63158854594355
H         8.91732785082290   11.74808983489200    3.39333954391316
C         4.99208630695078   11.51985604139209    4.63113250633798
C         5.48318257130874   11.12640489017622    5.87043576583880
H         6.48262247741830   10.72519881762092    5.95497974879795
C         4.69052713143225   11.25133661409019    6.99765395542726
H         5.07676432340882   10.94477816431994    7.95888683561501
C         3.40854708740146   11.76769396037876    6.90048313648004
H         2.79408850119836   11.85905040332175    7.78413507605938
C         2.91558147073200   12.16551016545661    5.66768441190830
H         1.91606318648931   12.56605930750027    5.58121598549895
C         3.70359038343524   12.03910088581632    4.54026209133641
H         3.32270933145610   12.34210744905683    3.57264431953679
C         6.69519457860362   13.03986988269113    2.96119190221189
C         6.40705877578254   14.08164468992990    3.83583554458976
H         5.74293119745163   13.92247511962492    4.67371683741135
C         6.97026007402116   15.32930467502012    3.62878372511686
H         6.74419940459231   16.13596392557104    4.31175393282931
C         7.81776884686117   15.54701596008328    2.55528863145127
H         8.25104052967399   16.52425054327929    2.39887331852597
C         8.10725241248698   14.51074072720446    1.68097167153024
H         8.76791623336489   14.67543280647851    0.84245897379806
C         7.54464600622264   13.26488289144915    1.87825933687722
H         7.75578262918743   12.45179250812229    1.19604654611374
P         2.82229576806887   11.99519279648166    0.24906402098517
C         2.96949590152492   13.80386639061613    0.08785395964017
C         3.87887282902488   14.41625628195307    0.94671279591695
H         4.48139162406189   13.80197784268707    1.60661752673733
C         4.01683932833627   15.79010728789120    0.95768517885893
H         4.72268864412447   16.25335702861409    1.63174305669738
C         3.25347848293362   16.56387977503434    0.09842371356849
H         3.35554404474319   17.63920682857403    0.10425618464047
C         2.37014279389728   15.95729021149613   -0.77902819812688
H         1.78755843488024   16.56077311472861   -1.46012885966722
C         2.22683454916911   14.58100554727409   -0.79115044577373
H         1.54284651785598   14.11374349329702   -1.48463725276365
C         1.80440541430981   11.47522791385397   -1.16673999303160
C         2.39477163921848   10.67824978917404   -2.13791305032272
H         3.42965463866225   10.38444999590574   -2.03127883112056
C         1.67016335351839   10.26676865497725   -3.24145991578084
H         2.14985104203704    9.66400941370875   -3.99640705413795
C         0.34237229900331   10.63419306537103   -3.36855629840183
H        -0.22954880471517   10.31478173638328   -4.22757163620611
C        -0.26139535656312   11.40810142322035   -2.38817531723307
H        -1.30187601808841   11.68529929761246   -2.48242430660916
C         0.46168167740441   11.82967738473703   -1.28880794972818
H        -0.01427156349956   12.42489463082863   -0.52054992146245
C         1.54724856103568   11.87565779238057    1.55454257801934
C         1.11760700647130   12.94285380648006    2.33465775004940
H         1.51912113196393   13.93320581844242    2.17019597408129
C         0.16928490673996   12.73744042350849    3.32265838768906
H        -0.16932969509624   13.57385662776457    3.91765704784523
C        -0.34736688176089   11.47253420176064    3.54664149511297
H        -1.08450444061444   11.31859951287522    4.32084785636435
C         0.08059611534824   10.40500298533083    2.77270905472522
H        -0.31987968356408    9.41635886051409    2.94236690859152
C         1.02117136481449   10.60605818427677    1.78251727242981
H         1.35570588715914    9.78067274469172    1.16598263460851

