24
CSD_code = EMEROD | q = 0 | S = 0 | Stoichiometry = C8H11Cl2CuN2 | MND = 4
Cu       18.59390182440612    0.84568045643067    5.76179272956740
Cl       18.12951833193376    1.81788717372765    7.67099775427004
Cl       16.86557782025215   -0.04094292396670    4.68450589538786
N        18.37369238419848    3.31391337160746    4.40806734648464
N        14.56302459043064    1.98101078156743    3.62967440831067
C        20.02418922288306    0.79397751877060    4.41449167996843
C        20.20438592277093    1.89261750580983    5.21794316020137
C        19.76271144367064    3.29657891037289    4.83002733582813
C        18.04319520309798    2.89210696681257    3.16756142722666
C        16.78124781623730    2.49257277434697    2.85816760038104
C        15.78682968002320    2.46870162318098    3.86633596487689
C        16.11107618127434    3.11144527385946    5.07965980278276
C        17.39930638155718    3.48180421963140    5.33149984158318
H        13.98336727843772    1.79119212561479    4.43276744820384
H        14.47007477985591    1.32374345876887    2.87072786416162
H        19.57420999242177    0.86616482336266    3.43546413797978
H        20.59935239186974   -0.10231292961516    4.59227374267215
H        20.92597315278407    1.86214477461540    6.02337353605920
H        19.87168379234567    3.95597990170633    5.69258943490982
H        20.38981328145232    3.67078097585665    4.01299234854279
H        18.83967482913783    2.87128533522966    2.43884437894850
H        16.55608236824797    2.12047457425813    1.87260868936652
H        15.37112153727274    3.21591739991484    5.85553092239141
H        17.69228979343925    3.87117590813411    6.29390254989062

