49
CSD_code = EMEVAT | q = 0 | S = 0 | Stoichiometry = C24H16Cl2FeN6 | MND = 5
Fe        5.84666606684217   -7.89447669262963    9.96338178715281
Cl        6.86172676635580   -8.94898741715601    8.48518023377566
Cl        6.20276995094762   -6.30338845983569   11.25619339834162
N         4.23019768892269   -8.52464783022225   10.18296505698083
N         4.98473525559168   -6.74982019787699    8.70115327379020
N         6.29065640750439   -9.19892664597637   11.28306007005566
N         1.70646767778647   -9.50827939016238   10.52591558892220
N         2.83472934790570  -10.39021217519364   13.71776384363861
C         2.17621598556867  -10.56015925286847   12.57454936579285
C         2.66264246491294   -9.84586477591405   11.38641705545263
C         3.64507268439749   -6.95314034897949    8.59115590250229
N         1.17629539317200   -8.38836297643928    7.25402684986179
C         3.20438682897762   -8.06385600080229    9.39757703131678
C         5.42427029134850  -11.02981019526745   12.56143237688082
H         4.57981737346561  -11.62476636275911   12.86069694862289
C         1.00264726390669  -11.31334047507339   12.49500076424041
H         0.50577479843067  -11.41675142005131   11.54438514255954
C         4.82779983370450   -4.88426787449637    7.23320999104294
H         5.32809467424908   -4.08962604314969    6.70419448866512
C         7.76345717204308  -10.54475496257215   12.57897302752556
H         8.77009508549374  -10.74880372515382   12.90560505721771
C         5.54753397757827   -5.75167792363000    8.02491385570485
H         6.61884578783313   -5.65338121622026    8.14416912916225
C         1.95940590114039   -8.69884487662928    9.50158849100649
C         5.23172398343485   -9.93084074855024   11.72059155316620
C         0.86243002036402   -8.59890095752691    8.52938524102102
C         3.44616223487235   -5.04728292413923    7.15236265977748
H         2.84841347891167   -4.36697091037455    6.56549002038699
C         2.85253172281502   -6.08509429917936    7.83598155098005
H         1.78817168597845   -6.23421302905665    7.79764830204784
C         3.99226320460362   -9.47736311063692   11.14078820449632
C         7.51147993682251   -9.49868028304532   11.71916941500071
H         8.30804827234565   -8.86842823711689   11.34506137867737
C         6.69499012977938  -11.33707560659927   12.99468046093680
H         6.86128847796890  -12.18289485725525   13.64385645561595
C         0.20858571517579   -8.38263020194756    6.35865141636480
H         0.52684898063665   -8.21297731361503    5.33811334631519
C         2.35716397067507  -10.95208160812633   14.81065425521529
H         2.93363383849804  -10.77405780334339   15.70927714383029
C        -1.46105227319455   -8.79572166584349    8.00174158735948
H        -2.48976173954302   -8.95206571902115    8.29331516457457
C         0.51479465186241  -11.90474007474829   13.64598573061242
H        -0.38820666378979  -12.49763458608074   13.61763882141950
C         1.20201417200272  -11.72090720978970   14.83670167038096
H         0.85296907286772  -12.15936301940425   15.75841799287310
C        -1.12884806767952   -8.57960181498871    6.67259251860056
H        -1.88310617537327   -8.56616539951320    5.90155850648526
C        -0.45286846540135   -8.81146884126873    8.94823675356306
H        -0.65267484269105   -8.98099253976667    9.99349112009532

