32
CSD_code = EMEXEB | q = 0 | S = 0 | Stoichiometry = C15H11AuF3NO | MND = 2
Au        5.00018620669418   12.34278058064153    2.86129286850669
F        12.62177992340098   16.67474878911120    0.43407987725770
F        13.00161357747833   16.83193788189001    2.54503763682792
F        13.51411105626951   15.02870675694967    1.49380978070710
O         1.02065422440096    8.02551023524900    0.80234153868965
N         7.51343948573776   13.93289710111575    2.84047097217177
C         3.76807070027203   10.89755517102331    2.17850766888832
C         2.89552649123386   11.10776176256324    1.10459618962647
C         2.00050628271473   10.15049541024573    0.67393501316976
C         1.94134282444854    8.90834415036840    1.30096772208470
C         2.80271175128536    8.65697489363724    2.35842137893096
C         3.69323732252160    9.63714507280996    2.77007469424500
C         0.91995469519423    6.76031618828746    1.40256674159643
C         6.44924094715239   13.55163325462337    3.15289224085798
C         8.73096744154254   14.41829064605645    2.52356834184336
C         8.84867685309972   15.39596352426853    1.53219448962589
C        10.09327936755087   15.90093685277046    1.21891278852745
C        11.21710491140833   15.43131329550086    1.88889878115307
C        11.10184845168935   14.45802546484494    2.87710272981801
C         9.86205446871211   13.94760643773767    3.19656434761400
C        12.57854489395831   15.98849015201196    1.58279123002786
H         2.90710193490056   12.05758620139669    0.58530387056407
H         1.33211049567495   10.34272874486439   -0.15176938569741
H         2.79622060837268    7.70731205601961    2.87272408422023
H         4.34902389824049    9.39592556967608    3.59747768674577
H         1.85674210540371    6.19806987972231    1.32080869061634
H         0.13769435943316    6.23428232714096    0.85665516030489
H         0.63499200023102    6.83546178927122    2.45789006921903
H         7.96567917259218   15.74720099994043    1.02157440023762
H        10.19638190978014   16.65480602515555    0.45409684196297
H        11.98449379901611   14.10373764088215    3.38684205627690
H         9.75440783958484   13.19185514422419    3.95876949337964

