32
CSD_code = EMEXOL | q = 0 | S = 0 | Stoichiometry = C15H14AuNO | MND = 2
Au        4.63644223489022    6.93579987113195    4.07119235382709
O        -0.15390099876071    5.18138748053873   10.73843212880523
N         2.67335935779049    5.96293202893956    6.10694270375873
C         6.14193570316040    8.04549788795497    3.31047216873244
C         6.14760505788892    8.47554580540693    1.97896146421801
C         7.18250606758993    9.21527267781618    1.43657386560990
C         8.28089910041298    9.57449738231283    2.20544125437031
C         8.30071430510808    9.16821509937576    3.53021950990719
C         7.25754944851536    8.42763416453606    4.05980803993185
C         9.39641787597826   10.38639104373341    1.61507035296446
C         3.27214460029012    6.08913870215974    5.11016808615319
C         1.95871754862018    5.78723514078505    7.24107843307134
C         0.77741099690115    6.49841607253189    7.43626802432284
C         0.04512899581754    6.32115277274613    8.59343227950246
C         0.48404191185088    5.42971238537200    9.57137296600204
C         1.67247120512737    4.71862931816938    9.36523129221433
C         2.40532850504761    4.89080335351425    8.21607490940455
C        -1.35521483563106    5.86239935269402   11.01834099983857
H         5.31393119699059    8.22206788800903    1.33442924239969
H         7.13779960728870    9.51897799015560    0.39804846704581
H         9.14236476301819    9.43233271585237    4.15853836875972
H         7.32218849848466    8.13536543197510    5.10178375617505
H         9.72739023658611    9.95489254860440    0.67102689730802
H        10.24480977734297   10.43315724973571    2.29448097612809
H         9.05957604267271   11.40457312954177    1.41571786148083
H         0.43988482388198    7.18903093750866    6.67833272473482
H        -0.86552127472011    6.88347938304999    8.72288911238700
H         1.99650719201084    4.03404956429082   10.13239857236268
H         3.32183230397630    4.34357356033729    8.05766709654825
H        -2.12868411251103    5.63150932794076   10.27944821043477
H        -1.20171472007361    6.94500795795442   11.06202285689950
H        -1.67372141554440    5.50472177532604   11.99583502469356

