29
CSD_code = EMEZAZ | q = 0 | S = 0 | Stoichiometry = C15H11AuN2 | MND = 2
Au        1.54269731812343    1.93792788115924   13.56482416383085
N        -0.38640427360199    1.72114937867889   15.81305514974884
N        -4.20763332798477   -0.58227731742559   20.77545696008191
C         2.86548835686510    1.16413276625324   12.24777006593401
C         2.57452257375355    1.05709906408818   10.88477756911821
C         3.49451296885067    0.58755746176014    9.96535402115687
C         4.76165416024230    0.18574347750583   10.36626823406378
C         5.06979251386582    0.26949510400173   11.71482071995440
C         4.14068248136385    0.74185272070697   12.62665006231778
C         5.75304765323198   -0.32447424192424    9.36291202096415
C         0.25899166362455    2.19914303413885   14.95843871638088
C        -1.15413309212026    1.24270527291428   16.81240708346020
C        -2.46735595184674    0.84158978874700   16.54655810895926
C        -3.25310801551432    0.36680516132155   17.57246166870040
C        -2.73740449072449    0.28756450155958   18.86922186179113
C        -1.42323570450892    0.68652368578004   19.12956431450823
C        -0.63271405636652    1.16215021405029   18.10776822919066
C        -3.54832805529722   -0.19510550255983   19.92140477875049
H         1.59875027460332    1.35553024473661   10.52131581947439
H         3.22414428709633    0.53054424454625    8.91881471605686
H         6.04770275572641   -0.03897742414118   12.06152436210049
H         4.42921381791643    0.78437687474492   13.66996331815617
H         5.95910628251339    0.43745069125024    8.61127009816960
H         5.35827718066492   -1.20038304623036    8.84827995130642
H         6.68887835066872   -0.59789186864380    9.84489288387427
H        -2.85035077776375    0.90904850651177   15.53980843520892
H        -4.26874229745339    0.05408923275494   17.38219258153300
H        -1.03420358261285    0.61905515397692   20.13433897454436
H         0.38395098668291    1.47427493973925   18.29188513066107

