29
CSD_code = EMEZIH | q = 0 | S = 0 | Stoichiometry = C14H12AuNO | MND = 2
Au        0.24408171530426    5.17409352386887    8.01035817676398
O        -4.40223833004301    7.24138365610437    1.31700164629967
N        -1.69688424059633    6.18675028580837    5.96697234785290
C         1.79569316146646    4.12656604038727    8.76917311537552
C         1.88810039610244    3.83115359031949   10.13367645215575
H         1.10254179621963    4.16138966371970   10.80342106762083
C         2.95095280778384    3.12924212168797   10.67620703299044
H         2.97577195045144    2.92828420397762   11.73954147509157
C         3.97817580191271    2.68542138483482    9.86373982864836
H         4.81117615572839    2.13639569087435   10.28185051743874
C         3.92293069705873    2.95365132477987    8.50823751510119
H         4.71706520938401    2.61368338518115    7.85592773978154
C         2.85248573368670    3.65709510631520    7.98287925737579
H         2.84347002333081    3.84767665352843    6.91561593931311
C        -1.13159230927571    6.00527060767666    6.97427975170526
C        -2.38032660494670    6.42789455988900    4.82537074556369
C        -1.97396453975681    7.45793900941935    3.97248150810064
H        -1.11321596238881    8.05564751857935    4.23012605103979
C        -2.67498207523733    7.69584781364166    2.81520542200366
H        -2.38101673067965    8.48376251866182    2.14070692903028
C        -4.19028855959859    5.89471226783435    3.33700033031461
H        -5.04550332986345    5.27994343314623    3.10700055111239
C        -3.48980695973412    5.65093821327206    4.50171343152174
H        -3.79679810779934    4.85749740292433    5.16618068864854
C        -3.79081887722023    6.91923222013436    2.47982762765497
C        -5.52650631323740    6.49734465733994    0.90710659180722
H        -5.83315839442682    6.92994526854693   -0.04353434143463
H        -5.27697690251761    5.44206868002741    0.76025552024726
H        -6.34796721109451    6.58326919752970    1.62497708085933

