28
CSD_code = EMIBEJ | q = 0 | S = 0 | Stoichiometry = C14H9AuF3N | MND = 2
Au        2.77063384874460    2.96717430883130    5.91419396204545
F         8.38712294152325    3.38181050044654   13.04739804781912
F         8.40376421565026    1.23407208051750   12.95487711586264
F         6.83876974787793    2.25042948549481   14.02296404249672
N         4.62009478375079    2.33439901120522    8.15802278301153
C         1.38730383439111    4.09723237940783    4.96573614647837
C         1.60701741063561    4.59562918757430    3.67870184866184
C         0.64599464991556    5.31634008335793    2.98970749352940
C        -0.58010310840549    5.57599678548250    3.57418987383730
C        -0.82817866312408    5.10800983885296    4.85161419413855
C         0.14221408483771    4.38807938021560    5.52810451986987
C         4.04613124138547    2.24047033066505    7.13941883687590
C         5.32267816612330    2.35126065578047    9.30913269082460
C         6.60779258415178    2.90043062790043    9.32829225958014
C         7.33135156257138    2.89344578673081   10.50183246353879
C         6.77616414252782    2.34651520391707   11.65437100612141
C         5.49663817581978    1.80197538832551   11.63783295479127
C         4.76565342054308    1.80477536868198   10.46848287163320
C         7.59162599778475    2.30969705037093   12.91612181017802
H         2.55638683080410    4.41427632721741    3.18987316637678
H         0.85889559295302    5.67684027796051    1.99218818951903
H        -1.33257353704833    6.14056836709088    3.04118696104768
H        -1.78065782196182    5.30380166458007    5.32567554072649
H        -0.08498632817676    4.03920158677769    6.52820485487245
H         7.02192431287470    3.32117842564858    8.42536361249245
H         8.32481646556045    3.31346521042867   10.53086985023678
H         5.07774082233508    1.38268276550595   12.53939807881537
H         3.77108462595653    1.38794192103052   10.43774482461752

