32
CSD_code = EMIBUZ | q = 0 | S = 0 | Stoichiometry = C15H11AuF3NO | MND = 2
Au        0.16000498879658    2.04636589634184   12.34190280590192
F        -4.97916064511038    1.60423020371063    7.61238643292566
F        -4.71885158844910   -0.47564344157279    8.08649294398078
F        -3.48361672239109    0.44687713168433    6.58936201049430
O         6.13195496147719    5.42425585310513   17.38125204757293
N         2.24552398986541    3.09752823157378   14.30017207681739
C        -1.16885705791261    1.62945038159929   10.88745719596336
C        -2.48394024454857    2.11337586956886   10.90297515049821
C        -3.41057146643865    1.81991826729816    9.91989571590769
C        -3.04123396678305    1.01425902889238    8.85255917362895
C        -1.75108871191083    0.50787020947422    8.78967781243286
C        -0.84835322753073    0.82027280862479    9.78887014801284
C        -4.03884357061727    0.65930307362087    7.79692655758423
C         1.44180022292144    2.56619372765279   13.64582321536472
C         3.18658553846123    3.68246926581693   15.07829948323418
C         2.83423548874881    4.20897126857222   16.31791566596588
C         3.79374060068361    4.79993176387813   17.11534898779415
C         5.11829039344332    4.87235822884412   16.68283717815640
C         5.46003459007111    4.34113504360048   15.43209482057263
C         4.50982919392068    3.75174134826535   14.63459200046527
C         5.87012714336835    5.97931214576517   18.65085193719091
H        -2.80396582217663    2.74740140704566   11.71992756082932
H        -4.41480520984768    2.21526700189149    9.97322107728079
H        -1.45979815910819   -0.12111590771432    7.96072089414706
H         0.15048872345642    0.41108064397102    9.70747353252100
H         1.80885713628907    4.15139419453906   16.65030243920932
H         3.49989885640711    5.20055187700742   18.07194844598890
H         6.48793515478065    4.40746536546527   15.11430638756319
H         4.77213157733809    3.34200323781876   13.67144628243201
H         5.15595449824264    6.80560438164332   18.58720470762960
H         6.82650078474941    6.35713001919827   19.00747005807678
H         5.49679254980599    5.22384147281802   19.34858525385667

