26
CSD_code = EMIBIN | q = 0 | S = 0 | Stoichiometry = C14H9AuN2 | MND = 2
Au       -0.47951221730808   -0.11987476366081    5.99513006267549
N         1.60295420974575   -0.08140450252582    8.11247729919571
N         6.29194629672097    1.96452613396587   12.39748338548146
C        -1.63736569436745    0.77265457087274    4.59743697036603
C        -2.88909136023035    1.31119599246624    4.90564039115072
H        -3.24232075564764    1.28879460973178    5.92941935903679
C        -3.71034913567311    1.87568538347857    3.94423579872442
H        -4.67445154826789    2.27535542482866    4.22911027921785
C        -3.29872670529484    1.93104324987984    2.62519476571926
H        -3.93418136150837    2.37399605095957    1.87083942404519
C        -2.06082664222101    1.41684965586994    2.28527370766116
H        -1.72131711119447    1.45341624240436    1.25873742084118
C        -1.25025194531957    0.85555367242076    3.25757624123737
H        -0.28582703687828    0.46574348586924    2.95539841970749
C         0.78767823296340   -0.49685748645797    7.37931774275771
C         2.54923697499699    0.33879622624148    8.97593185819578
C         2.18087774811646    0.75069014493722   10.26063016638152
H         1.14022628058930    0.73472187743733   10.54632727910915
C         3.15060654096657    1.17159722605309   11.14269169961117
H         2.88104621517031    1.49336248771322   12.13729543296961
C         4.49262182706009    1.18501145928402   10.75222060843348
C         4.85587742972778    0.77293127627603    9.46694389484015
H         5.89519426852274    0.78859463785198    9.17541118479335
C         3.89065859375874    0.35093990882566    8.58053563248264
H         4.15432984721442    0.02990972532169    7.58441937236472
C         5.48626704835486    1.61646730994838   11.66022160300071

