25
CSD_code = EMIBAF | q = 0 | S = 0 | Stoichiometry = C13H9AuClN | MND = 2
Au        2.83321769388096    4.68030773380257   -1.22119806219950
Cl       -2.37090271406936    4.96849887835084    5.77972944560751
N         0.87155960673373    4.26165912856123    0.98183944348762
C         4.25541100623446    5.69477104012371   -2.23862914459917
C         5.46335795501999    6.08564910370791   -1.65427787430934
C         6.45195223971609    6.75094136669444   -2.35931970166685
C         6.26336862003818    7.06037628188186   -3.69388935767963
C         5.07814769371812    6.69573101501428   -4.30592468806178
C         4.09924212984079    6.03112944913712   -3.58678247032689
C         1.50074485787234    4.07546826171179    0.01170650652964
C         0.12326032777301    4.43079425149053    2.09346447859324
C        -1.13296556728088    5.03326283076748    1.99967505651600
C        -1.89749534109212    5.19757693183508    3.13584699446994
C        -1.41136251594574    4.76252868027682    4.36233618070036
C        -0.16173811977394    4.16375669931407    4.46106998858124
C         0.60799971955356    3.99634172390316    3.32885437454295
H         5.64471264129759    5.86258173658887   -0.60943900133757
H         7.37224188359616    7.02949438409981   -1.86291557481565
H         7.03024638768838    7.58196495714152   -4.25004201977777
H         4.91199358793936    6.93051268329316   -5.34910664762399
H         3.18329785459053    5.76391263221716   -4.10009388935869
H        -1.49492377008971    5.36591425409923    1.03900132434519
H        -2.86885106962538    5.66185121651244    3.07564214326627
H         0.20234076221744    3.83243905389733    5.42044568719787
H         1.58104413016760    3.53343570558016    3.38750680791848

