31
CSD_code = EMICAG | q = 0 | S = 0 | Stoichiometry = C15H11AuF3N | MND = 2
Au        3.36557679731504    5.82084885664346    0.63974599616738
F        -0.13337267330289    6.98143215118521    6.56332106050965
F        -0.06573109832153    4.83435817524049    6.61516029137497
F        -1.63666594399362    5.83366751690353    5.54073149333837
N         5.30505770254848    5.41154750795363   -1.67612543802370
C         2.19200305191658    5.82794087165277    2.27551110587273
C         2.64007115344494    6.29954700821190    3.51731395613292
H         3.65598454722941    6.66162847187919    3.60968755274079
C         1.84448441786376    6.32984249340670    4.64691099821360
H         2.23003125087154    6.70636092956260    5.58356557915126
C         0.53449530493658    5.87757877988616    4.57244991691966
C         0.04400327792375    5.39199055367587    3.36956455928417
H        -0.97399199982265    5.03547981321032    3.30703009949910
C         0.86576049113381    5.37593379217230    2.25758460769090
H         0.45077255635827    4.99278324849561    1.33409204037337
C        -0.31858927251147    5.88619657114566    5.80045683215827
C         4.52627230542725    5.69564644139021   -0.85827794913736
C         6.22080906829688    5.10768783913637   -2.62849519992672
C         7.47356053731632    4.62954348146615   -2.25099738617033
H         7.70409359667002    4.50192964644747   -1.20428360582245
C         8.40218870607783    4.32619544498237   -3.22667944148087
H         9.37326141624212    3.95583213001735   -2.93399855018043
C         8.10662197545862    4.49024891743324   -4.57575303547248
C         6.84758882321734    4.96906543913398   -4.93272860470291
H         6.60726045390094    5.10048174203187   -5.97727413501150
C         5.90447552182780    5.27837689115633   -3.97586874283422
H         4.92956828191738    5.64972204259162   -4.25284335763175
C         9.11057406696332    4.16318167177384   -5.63423527558770
H         9.32513118537892    5.04518765863986   -6.23617226510029
H         8.71873163209679    3.39636285975405   -6.30121781423471
H        10.03857286561874    3.80460105281975   -5.19757528811008

