29
CSD_code = EMICUA | q = 0 | S = 0 | Stoichiometry = C15H8AuF3N2 | MND = 2
Au       11.82409147628391   14.57511585151883    2.06739634507015
F        18.32547411374352   16.62181324350307    3.60722919786419
F        18.40064785426203   14.64597144837522    4.45213297857696
F        18.75539775482782   14.93128453541686    2.35154654089385
N         8.97556365459304   13.64126509419530    2.26000343305445
N         3.15118036040297   10.82638993067954    3.90597107306119
C        14.54178928084736   13.82174608160724    3.13887511306473
C        13.77866119666567   14.81374473217919    2.51363749351545
C        14.46268879581995   15.99425297701261    2.20008363424510
C        15.80472759169478   16.17907965354691    2.47771753609350
C        16.51973421767190   15.16659432655988    3.10041200769188
C        15.88484164259128   13.97791102375244    3.42925098875691
C         9.97233855810891   14.15327685033239    1.93015630810378
C         7.79754153761301   13.06914878024834    2.59770799568420
C         6.90464957155016   13.76183053998306    3.41838028764229
C         5.70316610805371   13.17765105355456    3.75685113615579
C         5.38831880212849   11.90339745431171    3.27868986155939
C         6.28580063286501   11.21546059137194    2.45810744773330
C         7.48847172086121   11.79456026569334    2.11645292931612
C         4.15294602655698   11.30715914685564    3.62703238049830
C        17.97947632512257   15.34192494416402    3.38100469986942
H        14.07378827701057   12.88491521305244    3.41127682560017
H        13.93327108686943   16.80499074373673    1.71767057269114
H        16.29639262010777   17.10543333671254    2.21872963340753
H        16.43896031135375   13.18666800856225    3.91280612918764
H         7.16389474700831   14.74555615533484    3.77872936723230
H         5.00234908857336   13.69916743431394    4.39087046509051
H         6.03129848608875   10.23102252694734    2.09571582712521
H         8.19323816072652   11.27766805648053    1.48336179121661

