29
CSD_code = EMIDIP | q = 0 | S = 0 | Stoichiometry = C15H11AuN2 | MND = 2
Au        3.65892482101500    1.77631889339403   -0.26616009347495
N        -1.43995752308833    3.50087040823482   -5.35982679142171
N         5.76234556547837    1.08088444555598    1.84500845703866
C         2.27676958302198    2.24548222018846   -1.64741804830790
C         2.60785594223759    2.52986900039446   -2.98172675408113
C         1.67195746374899    2.85209726024372   -3.94347932112594
C         0.32079148614341    2.90582689548743   -3.60242110805548
C        -0.05697251016245    2.63075607569860   -2.28843648249082
C         0.90583413867183    2.31203524703177   -1.35243933132024
C        -0.64903911769719    3.23355611201821   -4.57124668720791
C         4.96254725890788    1.33937358068353    1.03965859158886
C         6.69376359272535    0.77376270720914    2.78113077438683
C         6.30589098432529    0.58950212239418    4.10789171212657
C         7.26149294759401    0.27570871482508    5.05073709705524
C         8.60335678957932    0.14043287731922    4.69997952652848
C         8.96972834129680    0.32897580622559    3.37164941971407
C         8.03007149069646    0.64383457550939    2.41023368310769
C         9.61819874538556   -0.20416444599844    5.74224727321111
H         3.64796132436796    2.49796332924719   -3.28394093214698
H         1.97427817918718    3.06394252617818   -4.96042119969558
H        -1.10292732548381    2.66996364010900   -2.01478978001420
H         0.57449373190182    2.10450451776220   -0.34183615977471
H         5.26670944103598    0.69395347537669    4.38062249576930
H         6.96573059304372    0.13196219754410    6.07930815974919
H        10.00559767916129    0.22807199991142    3.08404227940872
H         8.31609370377330    0.78973729594335    1.37966149336230
H        10.61861652959539   -0.23883246744000    5.31992971279644
H         9.60184481705910    0.53212117288498    6.54445374165898
H         9.39154132647836   -1.17491018393230    6.18148827161507

