45
CSD_code = EMIFOV | q = 0 | S = 0 | Stoichiometry = C11H23N7S3Zn | MND = 6
Zn        1.57536813215250    0.94710883781179    7.50562611423050
S         1.61011069418855   -0.44132155460733    5.53682173658061
S         3.84064612696199    3.98032383661086    7.03738835606823
S         4.83588255536700    2.11739571616659    2.25438752348631
N         0.15261462706427   -0.24606722410924    8.68611907394236
H         0.58402497834470   -1.16302771877539    8.75493979927187
H         0.03830315094924    0.10128144366678    9.63426463451533
N        -0.08238383578029    2.25249940363718    6.83339566330494
H         0.22328150732859    2.42822538729943    5.88098082549561
N         1.79266634445416    2.50197083514759    8.95095648180629
H         2.48328287589230    3.07486372249637    8.42309974201613
N         3.36118042512006   -0.01842403465089    8.43567962650179
H         3.39071880881464   -1.00624677420665    8.19215172569949
H         4.09467941006916    0.42233605566810    7.88368566352115
N         2.78450701904460    1.77171181704669    6.09940810632042
N         3.23056532836806    0.89108818923501    3.94046479295956
N         4.22454139059957    2.88444711785173    4.67205184918715
H         4.84505463939505    3.65986641641601    4.47436137945080
C        -1.17182561908480   -0.41676324993744    8.07574647090191
H        -1.78533459301680   -1.10130935658235    8.67695278785634
H        -1.02080051511734   -0.86123098393340    7.09036634007946
C        -1.90614133357714    0.91319092229425    7.93035897563609
H        -2.96790344564265    0.70224193074310    7.79207858001458
H        -1.80331402655830    1.49575083378079    8.84651306686893
C        -1.44628360169254    1.73015233755807    6.72492135278378
H        -1.47770762429506    1.07956965403910    5.84823315168976
H        -2.15631184368402    2.55480367161864    6.56485437843931
C         0.05633059391087    3.50834041836035    7.57554363827385
H        -0.89159776828510    4.05917642386996    7.60414249752258
H         0.80041901432165    4.12942911115243    7.07171126843747
C         0.55737385513832    3.27243693601548    8.99782188376280
H         0.71206924633939    4.24690485754045    9.48117683360121
H        -0.18128554659844    2.71778106307991    9.58344814200356
C         2.35110803907060    2.29041585740682   10.28217899406873
H         1.66423951232726    1.66270576191241   10.86145900594728
H         2.44439815835173    3.25351126597725   10.80492385006466
C         3.72779364790917    1.63761750669822   10.22515584963615
H         4.19559293677584    1.73367513823711   11.20585535821117
H         4.34223386212361    2.18202449834911    9.50597393899134
C         3.69633273628929    0.15883556327717    9.85076708756753
H         4.67506937161866   -0.28382822072307   10.08086144596280
H         2.94280279313517   -0.35905271075511   10.45072479175879
C         2.64632961123747    0.83882486627342    5.10577671911982
C         4.04067194843521    1.91981122115842    3.67586628201711
C         3.59619641224162    2.80675320989100    5.87180421441800

