27
CSD_code = EMIFAJ | q = 0 | S = 0 | Stoichiometry = C15H8AuN3 | MND = 2
Au       -0.61747929512790    4.34107343323002    6.46143921187362
N         1.80190014149806    3.72975992972689    4.79963474737548
N         7.68575971360665    3.63378506661209    1.65065201790139
N        -5.16622002780666    7.88450654748510   11.11260415720084
C         0.75637711663679    3.67670820092717    5.31988863821139
C         2.99600674373299    3.72186312910528    4.16677142962598
C         3.09496132278842    4.24203353150439    2.87378259266257
C         4.31073342910831    4.22052740039894    2.22623437357616
C         5.43139297922319    3.68212861697985    2.86370914907747
C         5.32725836250948    3.16688087277077    4.15821287176177
C         4.11401250835648    3.18549201803338    4.81062104928445
C         6.67741618202131    3.65667129209730    2.19402721175975
C        -1.82503013482776    5.34342491973928    7.72989735539589
C        -2.78251569814451    6.26285261787388    7.28193870396752
C        -3.64674399900887    6.92038470241154    8.13486434671114
C        -3.57860904771355    6.68163037272286    9.50674463871025
C        -2.63264827908697    5.78083443521438    9.99403717701536
C        -1.78243184392539    5.13926854699571    9.11536371432629
C        -4.45413486453296    7.34544767597122   10.39170724585636
H         2.21916927804677    4.65346536929602    2.39584296416462
H         4.40373852907153    4.61731197611437    1.22669804236666
H         6.20043254669059    2.75548338984803    4.64142575323556
H         4.01583004929622    2.79106035214033    5.81037348618041
H        -2.86131884702479    6.47308775511144    6.22276559403692
H        -4.37628255238692    7.61942106132948    7.74952648460389
H        -2.57209055682850    5.59188075155351   11.05703310736392
H        -1.05878375617261    4.44741603480267    9.52760393575508

