87
CSD_code = EMIHOZ | q = 1 | S = 0 | Stoichiometry = C47H36N2PRu(1+) | MND = 8
Ru        1.43535058835603    9.98613447479117    4.82965024467673
P         2.59010811260085   11.16464614554510    6.43828291118670
N         3.18891487427748    9.65550724490835    3.89310402612393
N         1.52172299163253   11.59733789146388    3.62208786102402
C         3.40670103805049   14.89220155765887    4.95784248067596
H         2.92764279356105   15.85926445408559    4.92810224765435
C         4.64881754994349   12.41945215202758    5.05773726063894
H         5.14017895543753   11.45592024373897    5.11170309205630
C         3.92784836908271   10.29762674188683    7.31431587828064
C         1.60210099107465   11.86772080897347    7.79682933268910
C         4.60727621036735   14.69347716497075    4.29710231348047
H         5.05943063144692   15.50150894925658    3.74285984045023
C         3.43699015498600   12.61257367742859    5.72110132870164
C         2.62951923529007   11.67687191143908    2.84461432217281
C        -0.70673734818747    9.69067360068379    5.46083985198165
H        -1.46096944778966   10.36206386446752    5.84604207521199
C         0.63425219738318   12.57827713175992    3.51104315941533
H        -0.25622548958215   12.50672782692048    4.12179976973450
C         4.71997340558994   10.54693546936542    2.21198388351392
C         2.90083008960648   12.73730380612915    1.95972391619893
C         0.11584771045371    8.83697172358080    6.25357004847472
H         0.12717404958596    8.81312017975934    7.33706002606507
C         4.14915027799000   12.71556143506317    1.27427130520512
H         4.40824869079898   13.56511317661413    0.66232576196088
C         3.54208097027399   10.59595329562390    2.98201325635839
C         3.79670864860324    8.92641710920837    7.50686736155504
H         2.91955689057700    8.42598080069706    7.11567809054715
C         1.94041425171773   13.77142158840983    1.86311432783760
C         0.34907572888894   12.38705844411139    7.47910795433369
H         0.00880152607501   12.33985805241221    6.45227306002512
C         2.04382100903438   11.90060078150407    9.11493859826218
H         3.00764240814472   11.49021132158218    9.37738256842954
C         5.03258168541671   10.96426714710771    7.83973956775537
H         5.13013885942422   12.03334168034651    7.71113197436469
C         2.07404398956976   17.30363249685139    0.62538102325513
H         1.94738845946578   18.30056405293883    1.01919530711479
C         4.01084782639247    8.62490159484785    4.05073788661533
H         3.73846069322500    7.88700555270216    4.79265894045327
C        -0.44697809137092   12.94526354315890    8.46080311716251
H        -1.41612318326619   13.34911145311887    8.20811576134398
C         5.17704151498909    8.47383112968036    3.31475578633876
H         5.78460775200299    7.59645357469123    3.47121840480535
C        -0.57632354693274    9.27228740284811    4.11217424827117
H        -1.15610902450231    9.64222865144252    3.27655903129226
C         2.40277004417359   14.74332950120576   -0.38259557605787
H         2.49594769445354   13.74414678333134   -0.78291004032188
C         5.00945853547175   11.67135363781316    1.38714540564586
H         5.95230464171925   11.68818194989771    0.86296544617310
C         5.87001256554764    8.88581461164442    8.70594804822020
H         6.62831702544460    8.33858127387526    9.24457898386587
C         5.23300804614992   13.45831273919837    4.35757124795795
H         6.17650117291054   13.30393537714239    3.85587054899498
C         6.76942770019982    9.21420176148339    1.56818618058277
C         0.76120531473118    7.91405726497691    5.39429900603098
H         1.31207257376587    7.03689781877943    5.70485122865345
C        -0.00091750424169   12.97930321780849    9.77283570762378
H        -0.62308425596551   13.40835190753924   10.54305292093805
C         2.81872993266945   13.85762328611192    5.66390375745205
H         1.88551551766410   14.01887675468321    6.18476611759280
C         2.37611592002865   17.11996622471431   -0.71434720693274
H         2.48319286731312   17.97287805187415   -1.36638213702416
C         5.99920344367486   10.25475943383497    8.52931107118363
H         6.85473841081926   10.77315897780070    8.93537007711548
C         1.92953289388338   16.21188545206662    1.46027274602446
H         1.70337395220670   16.35316893857089    2.50694222351640
C         2.10435732835854   14.91995818555694    0.96758361171218
C         9.06199256707895    8.76329008811174    0.05669490592744
H         9.95078865995585    8.58858826183427   -0.52946191338564
C         4.76472571841791    8.22171074877351    8.19907105537463
H         4.65820920497679    7.15754239264702    8.34757884128020
C         0.80866056109691   13.65971806001587    2.66084009435787
H         0.04213477052805   14.41697310815900    2.61068303754421
C         5.55789949931219    9.41633684479509    2.36724694561583
C         2.53252467363808   15.83848137058085   -1.21657645941595
H         2.75372319608531   15.69083746374139   -2.26266042418612
C         7.96396923683312    8.85027687600805    2.18777890276850
H         7.99990438514834    8.76181746076197    3.26395563025188
C         6.73555820826922    9.33827272457915    0.17956654354142
H         5.80407318026845    9.57799720820279   -0.31259979448902
C         1.23995338979118   12.45575127375138   10.09575895233981
H         1.58495498817062   12.47682123449157   11.11834593308623
C         7.87509708422180    9.10895541356906   -0.56863040607916
H         7.83565936933562    9.19676501339168   -1.64368795233745
C         0.33548887200368    8.19187402312269    4.06408797602405
H         0.54532764481522    7.58211061500667    3.19535840198630
C         9.10340671652637    8.63548765324425    1.43572366240283
H        10.02573925285765    8.36416770937637    1.92616749474702

