67
CSD_code = EMIJIV | q = 0 | S = 0 | Stoichiometry = C21H39ClNO2P2Rh | MND = 4
Rh        1.07537075247709    6.54996223477110    9.98131502923518
Cl        2.12731198565759    6.08809921651296   11.92372928748281
N         0.17606112249955    6.94424363333137    8.33062133920255
C         0.36508805896139    8.12185477596135    7.70532133921907
C        -0.26880158798928    8.44168383488585    6.51558896322831
H        -0.07707940126099    9.40018468907686    6.06352847876679
C        -1.13029465308498    7.51827246796616    5.94481576422412
H        -1.63688910797110    7.74089273857394    5.02034721353526
C        -1.32982777059337    6.30398842225032    6.58231697426031
H        -1.98763171098128    5.55026217120721    6.18355193705475
C        -0.66205875249076    6.05166231431200    7.76974305786467
O        -0.85900644107190    4.87621970553406    8.38896318982791
O         1.20293226879977    9.01580976436223    8.25574808521359
P         0.02114956123873    4.59923486343699    9.78091988639556
C         1.00232214900940    3.09729054965274    9.21557040788044
C         1.90871252877160    2.66314356363482   10.36450543914742
H         1.35678382648220    2.12021799100466   11.12643815964959
H         2.36720365403250    3.53492804830212   10.83122794745680
H         2.70066990293157    2.01332226109312    9.99435602167832
C         0.15880150002512    1.94257421187885    8.69042228300314
H        -0.60718906182358    2.30520468433817    8.00738682413716
H        -0.31934805914869    1.40362665098045    9.50453153802559
H         0.79392457117193    1.23904803340998    8.15237593574914
C         1.87552005188917    3.66609279853885    8.09112038018470
H         2.62501838802371    2.93840860444620    7.78367586162804
H         2.39339299249357    4.56602177175441    8.44303694605911
H         1.27449680956749    3.92655125863120    7.22002054636916
C        -1.40451713286463    4.18680859139401   10.93336424121552
C        -1.97335082021755    5.57502707832175   11.25139300224958
H        -2.77297188869314    5.50486412087357   11.98740070888068
H        -2.37610339651494    6.04412946124465   10.35226149076755
H        -1.18258981755103    6.21234480148115   11.66111016102229
C        -0.83571728166040    3.57941388036152   12.21161244572931
H        -1.57315411846408    3.62793359237039   13.01188360421436
H         0.04976706195241    4.13173132811193   12.52593281446253
H        -0.56629734497867    2.53588041347520   12.06675588316499
C        -2.49450804734812    3.31109137687444   10.32565835442916
H        -2.16760438050413    2.28134069949885   10.21703344069643
H        -2.79181707761495    3.68674926481291    9.34891606176831
H        -3.36908376646686    3.31888520226883   10.97577823213945
P         1.88311465342946    8.60845753367360    9.72551748585081
C         3.69028901410033    8.84799073383948    9.27093468730916
C         4.51974178044604    8.83063606330763   10.55085829954697
H         5.56642042300458    8.63857657829355   10.31818669264229
H         4.16521032554896    8.04309027686541   11.21559177504726
H         4.46161387957399    9.78303563784500   11.07222047254794
C         3.98481854889310   10.07869435600510    8.42083659894702
H         3.91863929691623   10.99294525888227    9.00286834368701
H         3.29059108853137   10.14648303731426    7.58602969050547
H         4.99579059027658   10.00838569573922    8.02015714265168
C         3.99094836192148    7.57805531931752    8.46543915076138
H         3.40208428510694    7.55254350219820    7.54722312691436
H         3.75043603760699    6.69485709903983    9.06675168346888
H         5.04524745858759    7.53279711688539    8.19629654394499
C         1.16884282713677    9.99702503493807   10.77397552623566
C         1.43150235969267   11.40015142814486   10.24183916068280
H         1.23848219522311   11.44851244952354    9.17183604275736
H         2.45742212399398   11.70611559393167   10.43014481144299
H         0.77446398848378   12.11146333441886   10.74187108592393
C         1.67939303204556    9.82523590007375   12.20212486026563
H         2.70626859835490   10.16478755047719   12.30340478665098
H         1.63624324386300    8.77566700694478   12.49284526412823
H         1.06443637491435   10.40035010869667   12.89320224254771
C        -0.33476361140345    9.69789328578087   10.75150391936550
H        -0.86132675395140   10.33012675794049   11.46480206074075
H        -0.50876469991426    8.65070786846000   11.02578335744453
H        -0.75603098900754    9.87491440047060    9.76197591060935

