33
CSD_code = EMINUL | q = 0 | S = 0 | Stoichiometry = C15H10Br3HgN3O | MND = 3
Hg        4.50771402010630    4.99479442761822    4.91785212225208
Br        3.02075664728069    4.99388234767862    2.99943081218380
Br        5.48571469036156    4.99566451948207    7.15176387817645
Br       11.34663011571300    4.99445479530506   -6.02883257843026
O         7.03897147044888    4.99424439380989   -0.49326222637509
N         9.16836785912912    4.99411123586774    2.33628880817778
N         6.73142322186707    4.99406350596537    3.66340227366056
N         9.33323777397545    4.99425409412293   -0.28901512293574
H        10.02712460435362    4.99422463367785    0.45115787780784
C         9.10331962667686    4.99404488836971    3.65477983295297
H        10.04374942569827    4.99402518061676    4.18689160063309
C         7.88795563696300    4.99402411113963    4.32849778137737
H         7.84117752194015    4.99398266015389    5.40864272358908
C         6.79178326637369    4.99410262109367    2.33515536641489
H         5.86748695977804    4.99411535108713    1.77184466924229
C         8.01741453676002    4.99413675091407    1.66849977592515
C         8.05687501676298    4.99421656625933    0.16489592844066
C         9.80457227952858    4.99431195743825   -1.59818499775875
C         8.93494239082107    4.99434713929262   -2.66677421597117
H         7.87230065805363    4.99433794950832   -2.49322694814150
C         9.41440438362320    4.99439141434092   -3.97690345287745
H         8.71420529798012    4.99441954989324   -4.79756460623153
C        10.76111694290682    4.99439830584341   -4.21525700420761
C        11.70318756181187    4.99436708327110   -3.15980140890018
C        13.09395514172339    4.99437556457272   -3.38631174922880
H        13.45607577797252    4.99440743889107   -4.40288427755824
C        13.98125379179525    4.99434793692831   -2.34744134501115
H        15.04324577815038    4.99435485729425   -2.53835449818133
C        13.51039015997175    4.99431128277421   -1.02987282322532
H        14.21411974150431    4.99429061706331   -0.21113710867591
C        12.16608208035597    4.99429999223187   -0.77561725920004
H        11.84538843400238    4.99427079724960    0.25634758497622
C        11.21665718560241    4.99432603024324   -1.81990941289918

