25
CSD_code = EMIXED | q = -1 | S = 0 | Stoichiometry = C12H8AuS4(1-) | MND = 4
Au        5.51925751603927    2.62647637110803    6.68028739180865
S         5.85901227965186    3.51099100036781    4.56254524321432
S         5.79782969941755    0.48990718014206    5.82054414829001
C         6.13682066971913    2.07923139377524    3.58439694879810
C         6.11066211634067    0.79408883937337    4.11951837139381
C         6.33912890333546   -0.29865748892589    3.28940374829172
C         6.59148639443754   -0.11865539581867    1.94430787929671
C         6.61768572038774    1.16179403872559    1.41117826757887
C         6.39122308780471    2.25155293408331    2.22758348431866
H         6.31378132446924   -1.28550542232530    3.72654150563079
H         6.76812483420626   -0.97724670249709    1.31147908321344
H         6.81521777086921    1.31106975441507    0.35878547852019
H         6.40650487842453    3.25721388535559    1.83513284529456
S         5.17814577382117    1.74191344008691    8.79740494483973
C         4.90052364480568    3.17377123193579    9.77546341117485
C         4.92667543147186    4.45892719830348    9.24032894569958
S         5.23930112341163    4.76327733198374    7.53927094334231
C         4.69825956226968    5.55166789926930   10.07047120329597
C         4.44594269690607    5.37166744371665   11.41557563119370
C         4.41974235130342    4.09122236510060   11.94870412515913
C         4.64617337965624    3.00146429761043   11.13229256875428
H         4.63087697130083    1.99580323094142   11.52474319688945
H         4.22221990914617    3.94194685964611   13.00109885268421
H         4.26931135776538    6.23026104817847   12.04840348598586
H         4.72359260303875    6.53851726544799    9.63333829533126

