44
CSD_code = EMOJIZ | q = 1 | S = 0 | Stoichiometry = C18H22N3Pd(1+) | MND = 4
Pd       -8.54440409691821   -8.18705717411247  -15.81757248907840
N       -10.23847874964210   -8.38504163638764  -16.96845686020172
C        -8.77481247521187  -10.17110259047173  -15.62981932444635
N        -6.93093821467267   -8.18455973963392  -14.74202589186312
C        -8.35813903004792  -11.01502862201232  -14.63933552380843
N        -8.42708792437142   -6.01705188736629  -16.01259172014362
C        -8.69585648551223  -12.39197675333738  -14.67001388475097
C        -8.26826212513053  -13.28172466181582  -13.66434458894294
C        -8.60417866641094  -14.60644128586437  -13.71657586941570
C        -9.38200740743470  -15.10053890723681  -14.77441155052801
C        -9.81408422902402  -14.26169516035315  -15.76396497221432
C        -9.48433851793595  -12.89144446534859  -15.73876675005313
C        -9.92304577356016  -11.99814179965857  -16.73987802623416
C        -9.57942651111673  -10.67681853101911  -16.68577041722320
C        -9.97965658977173   -9.64663048949395  -17.71463240555496
C        -8.80225994932209   -9.47061230672264  -18.68276552669512
C       -10.50043873598025   -7.27093714132670  -17.88517151832483
C       -11.40692394522263   -8.54081987055492  -16.08984650153566
C        -8.16741842705634   -4.91879685852442  -15.80303208448397
C        -7.86637316866791   -3.54679100931703  -15.57564547270035
C        -5.95590228276388   -8.31750496299157  -14.14805667147880
C        -4.75375560397116   -8.48001316039686  -13.40165065879876
H        -7.76259550612749  -10.66370547831059  -13.80420647193501
H        -7.67078345886252  -12.89931391008760  -12.84928200269466
H        -8.27282092869122  -15.28188041222504  -12.94249461192183
H        -9.63690003633502  -16.14891175418559  -14.79963676955019
H       -10.41391642411996  -14.63639162080022  -16.58017920282024
H       -10.53594862155258  -12.37567804455158  -17.54617906090310
H       -10.87923812411664   -9.94631738565508  -18.27149297328253
H        -9.06978028217899   -8.88180549283349  -19.55619088171800
H        -8.47626393532738  -10.45027768089572  -19.02418736946450
H        -7.95728909781329   -8.99269048322810  -18.15193680016511
H       -11.28108177745752   -7.54138512490665  -18.60531814937265
H        -9.59577412628647   -6.99399151013700  -18.42860603496857
H       -10.84333275237580   -6.40383074990411  -17.31859717310861
H       -12.32461242034617   -8.63598342673406  -16.68209199557438
H       -11.49816873740953   -7.66463480457433  -15.44167745372241
H       -11.30265198585446   -9.43062563720414  -15.46679109914241
H        -6.79109146066429   -3.38729583594287  -15.65607131132813
H        -8.19946322718983   -3.25602890657678  -14.57925616337439
H        -8.37551039680458   -2.93135295164116  -16.31774897223784
H        -3.98969729902428   -7.79529362208590  -13.76956277346852
H        -4.39601753358521   -9.50437586352420  -13.50926325596927
H        -4.94277295813607   -8.27520029004469  -12.34760076480257

