38
CSD_code = EMOJOF | q = 1 | S = 0 | Stoichiometry = C14H20N3Pd(1+) | MND = 4
Pd       -4.00127574540288   -8.55523031335013   -3.12095597378299
N        -4.23475750693297  -10.38940278537858   -4.02155190878124
N        -3.91918030116561   -6.87288646537356   -2.16069369615789
N        -2.09511670582925   -8.11091304139310   -4.07940105901972
C        -5.79956351792774   -9.01207549919532   -2.35713449515167
C        -6.80941906503029   -8.18506135691631   -1.89220835457168
C        -8.01550769931767   -8.73446886101667   -1.47112241628317
C        -8.22079802612760  -10.10113816288023   -1.51837768762062
C        -7.22526962775943  -10.93683316684950   -1.99865209598759
C        -6.02311417505308  -10.39246698150306   -2.41891697831894
C        -4.86216627088958  -11.20359637839788   -2.94400062055227
C        -3.87944610267160  -11.41594202816448   -1.78527886358961
C        -2.99600246021317  -11.01042977432378   -4.50207788102223
C        -5.15323130503964  -10.25589874580482   -5.16201430170479
C        -3.93709443423115   -5.93317441610223   -1.49911831019658
C        -3.96488771725851   -4.76456246329614   -0.68561266208254
C        -1.21836889791035   -7.52737707340364   -4.53637455838643
C        -0.11590473913448   -6.83882210676716   -5.11485832772912
H        -6.67867769642387   -7.11032142725189   -1.85180323627113
H        -8.79661377335870   -8.08494156315423   -1.10627242274994
H        -9.15937224449640  -10.51811963642696   -1.18843455834884
H        -7.38438892451842  -12.00391926905336   -2.04885111966003
H        -5.18304670256274  -12.17581384960591   -3.34499239077623
H        -4.42679474681845  -11.78396587801010   -0.92065545553565
H        -3.41844726147592  -10.44784902214042   -1.51341993882368
H        -3.10533522439118  -12.13973695400538   -2.02614922519548
H        -3.16899490938081  -12.06045884094001   -4.76362967230225
H        -2.21464827646498  -10.95688877260208   -3.74243395153207
H        -2.64753175551127  -10.48883736925001   -5.39473500040926
H        -5.28582118813902  -11.22088293532082   -5.66501474525046
H        -4.74424059149424   -9.54027846759331   -5.88082914673158
H        -6.12985162257164   -9.90119187603460   -4.82863573499465
H        -4.88577722614454   -4.21083278300850   -0.87066539852784
H        -3.11165622618744   -4.12639437075560   -0.91543333445131
H        -3.92605705921413   -5.05110237350903    0.36565460726659
H         0.47144047823312   -7.52929173763025   -5.72077471883454
H         0.51607517534545   -6.42836112894334   -4.32717494423018
H        -0.47745592652553   -6.02673212464612   -5.74589942169761

