74
CSD_code = EMOKAS | q = 1 | S = 0 | Stoichiometry = C31H38N2OPPd(1+) | MND = 4
Pd       -3.35893442501830  -11.52083007950984   -7.03081853738291
P        -3.86028308987936  -11.53670480635405   -4.87052951470755
N        -3.00381116754204  -11.41863184137027   -9.12480624138432
N        -0.16591873972924   -8.87213191499864   -5.63702047214274
O        -1.41362485498189  -10.51927218349568   -6.48043820704198
C        -5.07521499674798  -12.30645398609647   -7.63106840695432
C        -6.26738421891981  -12.37157893976228   -6.97224288531377
C        -7.41337490114741  -12.91964135222987   -7.59728120586369
C        -8.65240518626875  -13.00922946783677   -6.93248858260704
C        -9.74503753581043  -13.53696003686376   -7.56316465596366
C        -9.64781893526087  -13.99832348860808   -8.88458052229954
C        -8.45784399802493  -13.92908488968038   -9.55439720574919
C        -7.31276463809051  -13.39214765097648   -8.93177414740549
C        -6.06977601875934  -13.30865866025572   -9.59521461586036
C        -4.97734433119271  -12.78342977267597   -8.96269077129288
C        -3.60123935432088  -12.69697891907627   -9.58233193090699
C        -2.78139792466085  -13.88844142680269   -9.06838710924887
C        -1.59602038599689  -11.30267626668542   -9.50460844607147
C        -3.73803040482878  -10.28292431153955   -9.69255644964727
C        -2.50477740297716  -10.88001954097752   -3.78168280533113
C        -2.22496196704739   -9.50334622149086   -4.45337255048355
C        -3.61352937538984   -8.99667553697385   -4.91631344281249
C        -4.65056856944784   -9.96249285113334   -4.28960786545864
C        -4.44062172347489  -10.01218957775336   -2.79549856443921
C        -3.25286140706386  -10.55580999743106   -2.50790673828827
C        -5.46383604068112   -9.43445095530414   -1.88094438681842
C        -2.60138142147649  -10.77320789819435   -1.18838827496543
C        -1.24558731270767   -9.66194256867194   -5.60251028711345
C         0.09983164309250   -7.78645545749412   -4.71551916357062
C         0.84014130048824   -9.08024393376609   -6.66054275336487
C        -4.50873163490591  -13.04293242144206   -4.11311491727405
C        -4.15305049195779  -14.20176796499220   -4.80336682985573
C        -4.57117331810062  -15.43794308961701   -4.35093006843806
C        -5.35870719877107  -15.52017701280726   -3.21256676425017
C        -5.72553077862036  -14.36952120296422   -2.53304084653711
C        -5.30585798209506  -13.12775227980234   -2.97745708309795
H        -6.36780782821203  -12.01612809652052   -5.95003618040328
H        -8.72259899218261  -12.65389949423056   -5.91432119423408
H       -10.69143888351221  -13.60160819272700   -7.04781158587670
H       -10.52089391667669  -14.40959301303945   -9.36783999735472
H        -8.37766851185258  -14.28514348216284  -10.57104403130403
H        -5.99496038135096  -13.66819537368138  -10.61211783987935
H        -3.64686944236469  -12.72374676516984  -10.68222617005440
H        -3.37180584065118  -14.79687098154069   -9.16507187675388
H        -2.54667855960366  -13.73619599221045   -7.99932978489700
H        -1.85875853601105  -14.02197296254521   -9.62765307106658
H        -1.46276225922784  -11.48262934624480  -10.57861796736977
H        -0.98569487027256  -12.01024472255698   -8.94224290677665
H        -1.24421504327091  -10.29550411416325   -9.27699852610780
H        -3.59388932120520  -10.22964002341673  -10.77946879467131
H        -3.37593143728311   -9.35136403589540   -9.24831714885499
H        -4.80661236340737  -10.37930356365685   -9.49005103451803
H        -1.61139338155998  -11.49072941863117   -3.65197128738657
H        -1.81375525804316   -8.83845368297946   -3.69463241868151
H        -3.78844833031355   -7.96731441533429   -4.60291976052234
H        -3.70032403093965   -9.04841458277025   -6.01685414220880
H        -5.66866958821114   -9.74754195402970   -4.61173974871891
H        -5.24543853317200   -9.66302856377642   -0.84193638757685
H        -6.45475462709567   -9.81590314486946   -2.12511660978337
H        -5.49517032522024   -8.35036995551525   -1.99500455270329
H        -3.24710190955904  -10.46666846096862   -0.37135345651767
H        -1.67121906695130  -10.20833723617345   -1.12399038404628
H        -2.35692734666553  -11.82807359260556   -1.06424464954875
H        -0.77104510993785   -7.14156001552468   -4.59939070280369
H         0.90978869812959   -7.18443317809465   -5.12122833495152
H         0.41107207866961   -8.15845368005801   -3.73633154601921
H         0.60179790081483   -9.98611692577948   -7.21336983689273
H         1.81985853970474   -9.19196356511545   -6.19552994169388
H         0.86506719069396   -8.23254440856549   -7.34794132733015
H        -3.55118039538820  -14.10795591430586   -5.70834568053996
H        -4.29389376293819  -16.33463052743619   -4.88361569328701
H        -5.69340209761594  -16.48301245282972   -2.85844236078954
H        -6.34578640650825  -14.43921141703535   -1.65229932228617
H        -5.59735926233113  -12.23581424199068   -2.44623049570979

