57
CSD_code = EMOKUO | q = 0 | S = 0 | Stoichiometry = C22H28N2PtS4 | MND = 4
Pt       -0.00053469836600    3.94250182466960    0.00028806585861
S         0.11459605657560    3.12637061774623    2.19842005783704
S         1.51921353413236    2.15016099619105   -0.10468862323834
N         1.80548190812180    1.04784782419625    2.31372292170511
C         1.20906522036040    1.97612672173413    1.56666879128470
C         1.54456110827932    0.91598068056293    3.73414618947915
H         1.07109543815859    1.83797167506510    4.07747517872409
H         2.50070155788095    0.79272325156879    4.24999094895803
C         0.64211613513723   -0.28358999981064    4.03077996796857
H         0.56131537625199   -0.38737474346633    5.11440270302431
H         1.11251380070736   -1.19000946165612    3.64032770349219
C        -0.75303382636358   -0.12981344261250    3.42972993916135
H        -1.21369389882304    0.78117790356843    3.81618435126535
H        -0.67588405398817   -0.02423023676384    2.34601223631094
C        -1.63486863140873   -1.32827255143451    3.75469448697931
H        -2.62163245158110   -1.20370638478975    3.31640383717640
H        -1.74864508821293   -1.43819229308186    4.83095263605718
H        -1.19682203354181   -2.24353349187119    3.36157965081327
C         2.64825084000956    0.07001507518815    1.71684777368521
C         2.13969760413975   -0.80370843222504    0.76434879614801
H         1.10515407933827   -0.72831766508287    0.46732975915939
C         2.96380895501414   -1.75988296403154    0.19990330106985
H         2.56617270828209   -2.43647761007716   -0.54111842767553
C         4.29084222637688   -1.85105502021666    0.58453617560509
H         4.93208783811657   -2.59818168187191    0.14199639092102
C         4.79615410827748   -0.97952711396022    1.53439759161408
H         5.83222370131759   -1.04228227903596    1.83142510539033
C         3.97927783737506   -0.01829395490418    2.10179314104684
H         4.37613040197230    0.67382973571968    2.82937742625483
S        -0.11550047658863    4.75842589921118   -2.19799019243872
S        -1.52013308552570    5.73506016439980    0.10489146779629
N        -1.80582044546772    6.83736974286536   -2.31362203669592
C        -1.20975010209117    5.90897976522964   -1.56643081914856
C        -1.54472449564662    6.96901176088701   -3.73403389615202
H        -1.07147205028580    6.04686113190637   -4.07721872082266
H        -2.50078077555414    7.09247048109281   -4.24998347887812
C        -0.64191307170288    8.16829513395550   -4.03069712521497
H        -0.56099958226474    8.27197155896168   -5.11432263156042
H        -1.11207890766694    9.07487607192393   -3.64034280540303
C         0.75315223438636    8.01416079562006   -3.42953694846189
H         1.21360062531975    7.10304271055949   -3.81594365705593
H         0.67590287992707    7.90861978765394   -2.34582006976818
C         1.63532746107611    9.21237998012828   -3.75446865571300
H         2.62203686175246    9.08755683399349   -3.31612388588452
H         1.74919182984937    9.32224061078666   -4.83072465348998
H         1.19750458136237   10.12776794244328   -3.36139475987827
C        -2.64839069813608    7.81549487134597   -1.71693446919467
C        -2.13968440116704    8.68921721759170   -0.76451708055143
H        -1.10516936447381    8.61361887272481   -0.46742642680998
C        -2.96360946896239    9.64566580387052   -0.20025488992487
H        -2.56585744539309   10.32226609700173    0.54070049597364
C        -4.29060202449689    9.73710682312609   -0.58498081412845
H        -4.93169856023601   10.48444442646607   -0.14257778213478
C        -4.79606389986178    8.86559087531211   -1.53477272536051
H        -5.83210288522660    8.92856640228075   -1.83188397292703
C        -3.97937252134075    7.90409201329434   -2.10198900231119
H        -4.37633796512574    7.21198924604415   -2.82952853993549

