76
CSD_code = EMOLEX | q = 0 | S = 0 | Stoichiometry = C38H32Cl2N2SiZr | MND = 12
Zr        5.32604192026352    1.53823345784640    3.87032308261372
Cl        7.64549320887190    1.54330147359581    3.56935111351338
Cl        4.90329616711890    2.50833875682133    1.78437160916870
Si        3.39674508878259    0.54559268828613    6.30098371830472
C         4.11920547969238   -0.33918162712583    4.77866059837273
C         3.67090136682791   -0.12028759126865    3.42981473865425
C         4.68571546257968   -0.49141206852094    2.50145808845579
H         4.57456615439539   -0.51154656575741    1.42427933059782
C         5.78224520598889   -0.93140103678162    3.26373493980740
C         5.47281882106089   -0.82205193923755    4.65331946695088
C         6.60706039585985   -1.37404162647444    5.34745936801761
C         6.88725325468846   -1.68075191871879    6.67687283900605
H         6.15463167825670   -1.49756361688252    7.44610382407770
C         8.10088142544759   -2.25759241384971    6.99609871245580
H         8.32396536761659   -2.49171066743786    8.02629008770907
C         9.03328435300568   -2.56052108298658    6.00910298073520
H         9.96986310664377   -3.02049662643137    6.28596792966824
C         8.76942383158844   -2.30746922410649    4.67626948502553
H         9.47695553706443   -2.58786776670207    3.91151369220990
C         7.56286555171858   -1.71060235386555    4.34467683917667
N         7.04845851152367   -1.45096783692196    3.08643549933151
C         7.71469316066441   -1.55296512676177    1.85746169642624
C         7.05362024722325   -2.10392824010893    0.76322920405204
H         6.04413859312913   -2.46915408737419    0.87996388351344
C         7.69759213727424   -2.19796026389282   -0.45616660415815
H         7.18114835572236   -2.62787974217651   -1.30177108619794
C         9.00077954278616   -1.74977397912471   -0.59323467553398
H         9.50200962117324   -1.82697584877290   -1.54630933266006
C         9.65586950356012   -1.19492245669019    0.49388477042227
H        10.66664484434945   -0.83015311597652    0.38658665546297
C         9.01919025735831   -1.08931203465413    1.71629957310157
H         9.51071834408230   -0.62135079473198    2.55481265370278
C         2.30932466024595    0.33350997161920    2.97942852405870
H         2.28434044763174    0.38042170739774    1.89052620302775
H         2.05964622866264    1.32612737818666    3.36001062541650
H         1.54105962191777   -0.36917138233583    3.30578906856386
C         4.20620455763568    2.21899404620594    5.89241776063866
C         5.61073068199828    2.49262626294362    6.03638181413597
C         5.99351145368775    3.58297135780696    5.20328982676028
H         6.97104474041170    4.04911403330785    5.18857929287211
C         4.83361592039444    3.98992229760747    4.52061742369085
C         3.73802678587547    3.15732995395511    4.90167026889608
C         2.58627440907286    3.70110946414561    4.23024268425038
C         1.21731993131425    3.44816872883540    4.27371263820908
H         0.82301627853085    2.68464845981471    4.92454784943308
C         0.36400846792569    4.21186637893093    3.50158680055416
H        -0.69733677052914    4.01516428956436    3.52850912455858
C         0.84763083826089    5.24435813341100    2.70448991423727
H         0.15680913611691    5.83209811685147    2.11905038860223
C         2.19541863180292    5.54833358132558    2.67051943330810
H         2.55822200604967    6.38018686213477    2.08701626404561
C         3.06472946350906    4.77643456497001    3.42580402413523
N         4.42394661364621    4.95097838211064    3.61884228275442
C         5.27270041786629    5.83410049521904    2.93739656273126
C         6.23824833615306    6.54218910572945    3.64747806035894
H         6.30664177931431    6.42133718557426    4.71835606492842
C         7.08712200520043    7.40728529381411    2.98300383650703
C         6.97841968654399    7.57609473952293    1.61273561253288
C         6.02259365963575    6.86563116528212    0.90528668931099
C         5.17305324463879    5.99240861148504    1.55838891573184
C         6.57952019532973    1.83671503829691    6.98185675469734
C         3.88704424961351   -0.14785087735373    8.01169685373890
C         1.48872493603744    0.50777173245789    6.37677723491764
H         7.83347612853458    7.95585132856162    3.53854344110167
H         4.45423530588990    5.40706146013503    1.00669062058283
H         6.67807892794792    0.76573983351655    6.79255853910475
H         6.26616461708624    1.98116194740556    8.01693869828647
H         7.56526087637551    2.28638622806784    6.86093503340213
H         3.75382190664169   -1.22453340067651    8.03205971986536
H         3.22985496300086    0.27251836903265    8.76601462032411
H         4.90305380087182    0.07415554410772    8.30866379764874
H         1.17116045601942   -0.41752773574840    6.84647487584487
H         1.00252176745089    0.56366534851525    5.41229879787120
H         1.12166729534759    1.32352737945453    6.99095726881149
H         7.64108543029013    8.25462197075332    1.09696122717701
H         5.94532941373655    6.98307192485170   -0.16545011960025

