65
CSD_code = EMOLIB | q = 0 | S = 0 | Stoichiometry = C22H40Si2Zr | MND = 12
Zr        3.06365577421011    2.15929081846137    2.34085483155521
Si        0.23258981953813    4.54865112844439    3.87372752811136
Si        1.28232134703907   -1.17173545588535    3.30362559650150
C         2.05345943688346    3.46952336349428    0.81876659364018
C         4.90394673071864    3.83487921698684    1.98369949224798
C         5.31577977231503    2.65898463544147    1.30018907233991
C         5.56508694154791    1.65198564540367    2.26581213386848
C         5.32858097729182    2.20172373205284    3.55330025901955
C         4.92830097781744    3.55636230937305    3.38167982331605
C         1.48936187337649    0.64769404378643    3.71250858600311
C         0.72818667745120    1.73002707723494    3.23021361927969
C         1.19243979943630    2.93911746437070    3.81470269264311
C         2.25980803132186    2.57503842984275    4.68710384551821
C         2.45004407268479    1.18730266351072    4.60918435048581
C         4.80286454770313    5.21411033359438    1.38534592563249
C         5.51229827039365    2.49267318089441   -0.18135504513598
C         6.13213576573020    0.29363613638790    1.95611253150485
C         5.72246691808161    1.54874364546297    4.85318521302394
C         4.88371728831865    4.61790909191635    4.45063553800444
C        -0.60256655965264    4.70845699085754    5.59072016283670
C        -1.14017354252525    4.56818129894630    2.54462262447772
C         1.35752822107026    6.08826258012448    3.65772949116149
C         3.03072635726603   -1.95439547466038    3.25745476054926
C         0.24752915466237   -2.05557308093269    4.64878058603526
C         0.40682248379982   -1.35448826439824    1.61606848080986
H         3.03307743121227    0.75832375787554    1.25928595086501
H         1.06833217303756    3.03753853737068    0.57693302296461
H         2.62291228042446    3.47446124688525   -0.12444812687901
H         1.88658619090115    4.51589153305948    1.10548275917544
H        -0.13348008884367    1.64310731348574    2.57964906931050
H         2.71401135971528    3.23809455009001    5.41226759181329
H         3.09674906759718    0.59239628262712    5.24335535906634
H         4.32700656024745    5.19889804658152    0.40607308394209
H         4.23936513677178    5.88230226205064    2.03417950182427
H         5.80332875379051    5.63864246559201    1.26401943776528
H         6.52260483621538    2.13760901018444   -0.39104466020903
H         4.80740293582788    1.76119211626493   -0.58974658847488
H         5.37261267646500    3.43871926006626   -0.70052039761135
H         5.63388097186293   -0.14729044030616    1.09045985576793
H         7.19781623854368    0.37355251251582    1.72370338816095
H         6.02640227661200   -0.38403452724705    2.80304452962814
H         5.55269375044679    0.47159790742870    4.82574398239858
H         5.17318645166811    1.96303404554321    5.69782862218578
H         6.78787513280502    1.70851618882783    5.04170288685337
H         3.97103572376908    5.21261497877257    4.40428207645790
H         4.96347651030050    4.18126329913052    5.44399077722860
H         5.72909370525991    5.29890393249957    4.32522944230204
H         0.13074149355572    4.70070698471600    6.39112791310839
H        -1.28956516397222    3.88819894901857    5.77266248435356
H        -1.16474643105963    5.63367160878025    5.66971076952349
H        -1.85794149875945    3.77206045992736    2.71420853374693
H        -0.73877332784109    4.44348555039132    1.54453374290146
H        -1.68515520344653    5.50671302666306    2.56639209023962
H         1.87022886522913    6.33364291340711    4.58333296419716
H         2.10826961839195    5.93860578034007    2.88594413247310
H         0.76959781878511    6.95769496788391    3.37995961582588
H         3.00958110147534   -2.96604168819470    2.86388894902005
H         3.68378725871166   -1.36106855709216    2.61968996291262
H         3.47532395244443   -2.00226905757889    4.24814278137514
H        -0.74748094936079   -1.62976140063433    4.72415024195612
H         0.71142238289616   -1.97662841292421    5.62645492507681
H         0.13828102437110   -3.11046093419467    4.42002281427805
H        -0.63522383238871   -1.05418941201492    1.67455079132634
H         0.43134260335509   -2.38052742912203    1.26240574575725
H         0.89432907649178   -0.73042913938183    0.87108128393345

