73
CSD_code = EMONEZ | q = 0 | S = 0 | Stoichiometry = C24H45NP2Ru | MND = 8
Ru       -2.26521559049840    1.50061540212035    7.25043849446553
P        -0.51795222512420    2.57874275720475    6.03161026152225
P        -3.27735828695997    3.44199002003401    8.00877674495659
N        -0.89106799119894    1.48747896048205    8.80900070797547
C        -2.32439127663077   -0.69211682710610    7.63068539295852
C        -2.17855081999585   -0.55463242862685    6.25160598325684
C        -2.84075301268324    0.42440571049688    5.44516737103161
C        -3.96920533939531    1.19494017729238    5.78522692046215
C        -5.32160132965694    0.63461655129036    6.17973364215526
C        -5.29366911888587   -0.65210531365055    6.98498377293381
C        -4.75926019418562   -0.39571638534842    8.38306075101597
C        -3.29584288126820    0.00611967486102    8.43366563317069
C         0.81317055308278    3.35803111551585    7.08000756341723
C         1.43333466526954    4.68289699196007    6.65096336556452
C         0.49794699561210    1.41260588529871    4.99494310546409
C         1.70995086754646    1.98021554383504    4.26694810029353
C        -0.82760865747770    3.93039860983328    4.78844882816438
C        -1.68531251551203    3.49257098684355    3.60946188973684
C        -2.16952074053664    4.79506760502066    8.65627631387393
C        -2.72138443783158    5.78641513985831    9.67474302500509
C        -4.70530693017834    3.37980615993719    9.19448068841339
C        -4.46287043925975    2.72451685820075   10.54522589440681
C        -4.16828520319647    4.33428040473092    6.63636052806073
C        -4.62225747442908    5.77436735051607    6.84307936886084
C        -0.95854840454274    1.96795772102771   10.07072223221761
C         0.13510064286099    1.55732041116125   10.79904484701525
C         0.91140161589336    0.77338500307192    9.93373830964912
C         0.24323989820513    0.75212297362938    8.73108663046220
H        -1.55434110355858   -1.27943274794122    8.13447158240306
H        -1.39618378491170   -1.13817305690941    5.76505332393359
H        -2.36879911305925    0.61125115721552    4.47652399942849
H        -4.14460156208668    1.99477319833449    5.05772557244808
H        -5.89024852654769    1.39086755481649    6.73024580553215
H        -5.86643199519867    0.45204221060359    5.24295652645824
H        -6.31008023694290   -1.05045308597937    7.05526931744813
H        -4.68000736107324   -1.39978112796224    6.47590546062430
H        -5.37107029419729    0.36880934210324    8.86902086172936
H        -4.86676647601627   -1.31375220788559    8.97620658373829
H        -2.98468286011377   -0.00875699492478    9.48760885938045
H         0.37333024190460    3.48185378940552    8.07102004079147
H         1.59067260928487    2.59687015465841    7.18674361236310
H         2.15997781259884    4.98481733362701    7.40393432196598
H         1.95403726523773    4.61001689877735    5.69946063590370
H         0.68380438715770    5.46704594239496    6.57890303584109
H         0.82648458111613    0.62565427520279    5.68017910324946
H        -0.17572413369654    0.94652123067201    4.27045062189245
H         2.40824509251592    2.43833405890474    4.96209766590106
H         2.23173635065765    1.17353027431229    3.75278640148711
H         1.42131470466393    2.71694398228620    3.52126686215843
H        -1.32631526240715    4.73988669764118    5.32887657809014
H         0.12879132825449    4.30917122765702    4.42636177908090
H        -1.91767166663489    4.34683014659583    2.97438408086900
H        -1.16629715400792    2.75429709614579    3.00218377866512
H        -2.62167812194552    3.05754127911144    3.95140798450754
H        -1.30760507974840    4.28861191782077    9.09543089771277
H        -1.81146140542401    5.32110911316345    7.76441137647402
H        -1.95660486100996    6.52963945331677    9.89717207599024
H        -3.60194874355893    6.30885097368041    9.31402519234818
H        -2.97444206682820    5.28496852789879   10.60424635002202
H        -5.07720122736918    4.39790432767023    9.33253561417142
H        -5.47005607813065    2.81209896019339    8.65498793822993
H        -5.41046228239413    2.58913152933204   11.06605652833928
H        -3.99590626408523    1.75277456070419   10.41655756648179
H        -3.81989233755854    3.33319898792129   11.17594823633154
H        -3.49843996596663    4.29464336740306    5.77481188673983
H        -5.03693300085741    3.71494233563713    6.40124026548180
H        -3.77895360203764    6.43685240340420    7.01732862764997
H        -5.13382166728379    6.11754205854143    5.94433127010303
H        -5.31940890781771    5.86348148273123    7.67196087123898
H        -1.79237087558159    2.56625270575100   10.39283493104991
H         0.34491599549037    1.79203700924779   11.82637107982489
H         1.84020266485521    0.28156989208031   10.15882878075368
H         0.52841261529037    0.24478470514890    7.82228974865720

