78
CSD_code = EMONAV | q = 0 | S = 0 | Stoichiometry = C28H46P2RuS | MND = 8
Ru        5.02134610264948    1.14719962239723   -8.51806619025731
S         3.10961664585189    3.54242553733114   -9.74621269742535
P         2.87257914817553    0.82970611939285   -7.54998776192653
P         5.14322467345408   -0.87645152331872   -9.62539563487384
C         4.02246610425049    2.05206715390525  -10.08764282841345
C         4.04380594847629    1.85483482059502  -11.42942936851877
C         3.35743276468929    2.82377483777826  -12.22226175691772
C         3.20277971560978    2.88922750592499  -13.60706669062123
C         2.49247586977750    3.93163403264596  -14.16236303943687
C         1.92552833639389    4.92068725411891  -13.36100305541654
C         2.06354183805855    4.88003945737503  -11.98690075351066
C         2.77747726555132    3.83308146516109  -11.43240490353257
C         6.77383742423536    2.14640313145719   -9.33668118850570
C         6.12254967166311    3.07751175358638   -8.45106669209764
C         5.76428239380053    2.80646057960188   -7.13156651487448
C         5.79704647695565    1.51800810935914   -6.51143286762161
C         6.48448823901890    0.37217066265861   -6.94280369532067
C         7.98093570958734    0.28555796622974   -7.16727462085890
C         8.64080971238518    1.54852300692469   -7.69081653108125
C         8.24071419586406    1.80419700366008   -9.13288998214655
C         1.48640352788310    0.59084155403902   -8.76769954789704
C         0.05921888511306    0.93936698761649   -8.36491237664147
C         2.32713669880213    2.32492441093910   -6.58127092993620
C         1.27554327273840    2.19264301102423   -5.48372678974296
C         2.40324009619479   -0.56917557672586   -6.41257268198401
C         3.29761493821725   -0.76322796186149   -5.19726898875840
C         5.30488874556837   -2.30160941142448   -8.43612239920359
C         5.13380875986463   -3.73024644775026   -8.93901392462292
C         6.61391881626530   -1.28641769405872  -10.68196530364678
C         6.88473229310557   -0.37954880783888  -11.87255082213053
C         3.67465203116104   -1.43921649364806  -10.63073716581751
C         3.89480984226462   -2.34633095124351  -11.83631809962475
H         4.55157661115278    1.01813505450389  -11.88164922302412
H         3.64401314055864    2.12479795386418  -14.23114740569130
H         2.37219854541599    3.98720310341301  -15.23511597393298
H         1.37358253478080    5.72853480677509  -13.81894091522435
H         1.63005957285804    5.64282696805853  -11.35758210334067
H         6.66189292605942    2.48208898889717  -10.37761803794177
H         5.78310735182914    4.03754522703298   -8.84597842261129
H         5.29080745572270    3.61200884772002   -6.56935593207530
H         5.15246890580369    1.42479556589159   -5.63224576960816
H         6.18070214949669   -0.51907787090998   -6.38409611645980
H         8.42549325184301    0.03370575401540   -6.19397567198933
H         8.21105282228021   -0.54704804100032   -7.84012560497326
H         8.36768990150114    2.40157329650018   -7.06418561112252
H         9.72722460315646    1.43247470621772   -7.63511111232965
H         8.50652437946862    0.93487872602204   -9.73997857977562
H         8.82724197750264    2.65013773743275   -9.51613380419653
H         1.75607404526477    1.17772619906244   -9.64820621499802
H         1.53481999282302   -0.46310192328296   -9.05526894542063
H        -0.03435760125704    1.99518441505651   -8.12746513959894
H        -0.60334359777726    0.72879404469276   -9.20358236689843
H        -0.28123508906177    0.34719219126030   -7.51857623380939
H         3.23100244768916    2.74876406427752   -6.13694018170653
H         1.99305092976643    3.03688581216677   -7.34229005426995
H         1.06800449248894    3.18330103730429   -5.08003008820862
H         0.34108243814660    1.78232628091293   -5.85083271934084
H         1.62767116765700    1.56992933704808   -4.66532656854758
H         1.37067007282442   -0.40789955926878   -6.09454214691200
H         2.42410386800534   -1.47397856725995   -7.02896778820672
H         2.93269464784798   -1.59168436171294   -4.59062398623213
H         4.31655097415750   -0.98956294073344   -5.50137698017011
H         3.31895353164233    0.12751296101893   -4.57342125861046
H         6.29471810532462   -2.19654773700808   -7.98564032861934
H         4.56650546922136   -2.10611609467278   -7.65348243838420
H         4.13930181586211   -3.89535272769151   -9.34391204969797
H         5.87002168594673   -3.98124882449607   -9.69793930924449
H         5.27174674876415   -4.41863036211078   -8.10578775619094
H         7.45981148259579   -1.23051772380022   -9.98981587397266
H         6.51858130785042   -2.32281998313411  -11.01394587211987
H         6.86987594686113    0.66132868478214  -11.56550741361171
H         7.86361895885399   -0.60485844886754  -12.29499118246997
H         6.14469091206057   -0.51771158805458  -12.65643238614691
H         3.01853031082873   -1.93596931312120   -9.90827858073087
H         3.16672055743857   -0.52847537560997  -10.95443990765599
H         2.92734316144063   -2.62299610580601  -12.25376240941988
H         4.45525725202793   -1.83548367672344  -12.61309665952274
H         4.42069169164972   -3.25973165450993  -11.57585107162679

