61
CSD_code = EMOVIN | q = 1 | S = 0 | Stoichiometry = C24H28ClCuN7(1+) | MND = 4
Cu        8.97188754631695   10.30184637513150    8.15875702428956
C         8.98218213712212    8.54636471634078    7.66247007274802
N         8.84017281835656   13.24670469072970    7.50789044426602
N         7.58874415627482   11.37625091247175    9.32418711944757
C         8.80424660018946    3.55391084693699    5.95675198816792
H         8.76573641513341    2.53639475659194    5.60152979841992
C         8.77242990678531   14.21880876041473    6.55739990222802
C         8.68099872707340    4.59591069462165    5.05259623883758
H         8.54722102245660    4.40220273697097    4.00079863939773
C        12.04657337321216   12.36438760302734   10.35988610927853
H        12.97686553863170   12.45571100001400   10.88045416848638
N        10.10740029407419   12.78125842321018    9.44007114383528
C         8.90425143903576    6.15742537912701    6.87444551805430
C        11.12319025642212   13.35788188777973   10.13837742928097
C         9.02962513324078    5.10314408147348    7.79335838758465
C         8.82443080211206   11.05347260542014    4.69156207043738
H         9.70226617463939   11.10666437502238    4.04968609661722
H         7.94163946536385   11.08452671369066    4.05555027705774
H         8.83994924928926   10.11662971764054    5.24312624036861
C        11.52310252427665   11.20089377323300    9.76332716216613
C         5.91915851886249   12.14207804411013   10.57946535247466
H         5.02267275280186   12.16723654816445   11.16294294923995
C         5.99093085258223    9.62062192414583    9.94611382511973
H         4.97079242651375    9.58459746314604    9.56886316181487
H         5.98920789322319    9.21937161912450   10.95828169897331
H         6.63168671062339    9.00780767889234    9.31647768127970
C        12.12138667845516    9.84675181930515    9.71188929003844
H        13.09726901161926    9.88510390408908    9.23144852815248
H        11.46925183759503    9.18066591317110    9.15198301106236
H        12.25812740673234    9.45739305202209   10.71927583806180
N         8.86490065394110   12.02424115685611    6.94514094675299
C         8.88778998905093   13.36736436761191    8.94303397044803
H         8.85947234478682   14.42675689052182    9.21682317568690
C         6.48640513778406   11.01668605531068    9.95064240777168
C         8.75403279347334   13.56848866089748    5.34716702194566
H         8.70422153112055   14.01680948183176    4.37694362954449
N         8.94890669121705    7.43422893728865    7.31200569074739
C         8.81391144365404   12.19140666867998    5.63898392501127
C         6.65652664282104   14.62813155223499   10.68336005300619
H         5.76991305432723   14.77417417448053   11.29307470851554
H         6.57784400970494   15.27376646335263    9.80864894512948
H         7.52488109118038   14.93457187582759   11.26664181071975
C         8.73089534500289   15.66740585725683    6.87347489263824
H         7.85516607017726   15.91662226512017    7.47282646271391
H         8.67958629124549   16.23221361576338    5.94745379849442
H         9.62445881752141   15.98035257183419    7.41369048756057
C        11.13350264898319   14.78760808889597   10.53292862455274
H        12.04611418507297   14.99876418117633   11.08220067151654
H        10.28634196777751   15.02678896988817   11.17579553663782
H        11.10396948981444   15.43903282021772    9.65944511702889
N        10.35596504578349   11.47766175563138    9.21710368362528
C         6.74745975599784   13.20041933212826   10.29199094436479
C         8.97603787635056    3.80641839376188    7.30831779212664
H         9.07025819865110    2.98285091052174    7.99893767228964
C         9.21568512418583    5.40320225257901    9.24588493797322
H        10.12889804177360    5.97666523767089    9.40309676004773
H         9.27809429125277    4.48437284508481    9.82071055791795
H         8.38452656568077    5.99778342561383    9.62400789752311
Cl        8.57815651517284    7.22274470668381    4.40857067667305
C         8.73040673105995    5.90039129824281    5.50879066364826
N         7.75337398641765   12.69615717101526    9.52653937020088

