64
CSD_code = EMOVEJ | q = 1 | S = 0 | Stoichiometry = C25H31CuN7(1+) | MND = 4
Cu        3.29365937462575    5.42314336770808    3.60809212981432
N         5.49070745616678    7.41710070644634    4.18729193914241
N         1.05656945839645    3.62097548944224    4.46124534811967
N         4.51410858713443    6.69872291582507    4.76995737443470
N         6.00782760483713    5.96645456833966    2.40193941281644
N         3.34202540814973    7.06027590184269    2.27963925582713
N         4.48702143869913    7.73724900426867    2.07819279052805
N         5.12985298916731    4.98365692518613    2.67262806896779
C         5.68640401832435    7.32441882020064    2.76247055711910
H         6.51225476929966    7.98016179044765    2.46934696528165
C         1.92091129290086    4.32511399018604    4.12005385227660
C         0.05712059393441    2.79623239707780    4.85044968499469
C         5.57928391896882    7.88736009074157    6.32044646427252
H         5.85208027676718    8.29434086791106    7.27161908830838
C         5.65988769171202    3.85487219066850    2.24683815803320
C         2.97566220115198    8.71422784783105    0.83683316773198
H         2.47212483068074    9.36999372838066    0.15774136767847
C         2.41272609718504    7.63117349392789    1.54005881559755
C         6.92334288781286    4.11641658704465    1.68164478054472
H         7.59392780399701    3.40225404475751    1.25147853298477
C         7.12043690310133    5.47180645528149    1.79367676215157
C         7.29822253661162    9.05250376436096    4.76389289564881
H         8.12328371327758    8.49338147410146    4.32251109404507
H         7.65980190816240    9.53240925762519    5.66835017321844
H         6.99086079795223    9.83080073017694    4.06540116107479
C         4.54664438328477    6.96543474047377    6.06007507050526
C        -0.72503449478872    2.17153784617491    3.86772837133250
C         4.30057275394473    8.75922906958274    1.19895241241600
C         5.38291990911466    9.68443046556695    0.78344187861829
H         5.78269895024938   10.23251778513931    1.63675571107179
H         4.98398362369620   10.40435967232132    0.07516156715535
H         6.19905282300415    9.14757815797865    0.29975753329521
C         3.60266375356576    6.34738160035975    7.02016625219639
H         2.91473683688754    5.69759154836943    6.48484617014066
H         3.04040383710285    7.11833679537786    7.54382952089605
H         4.14651356098853    5.76536821609637    7.76215889131113
C         1.01442582760843    7.14271525199625    1.50886176542739
H         0.90301158444283    6.31307369555205    2.20296940950246
H         0.75487218700922    6.81085984513040    0.50492876571324
H         0.32955536197989    7.94179120121257    1.78612896969150
C        -0.15904071966622    2.59406711588434    6.22152012177098
C         4.96703525506205    2.55227986809485    2.38063223164145
H         4.00413391861633    2.69828905611880    2.86432449697905
H         5.56838130966704    1.86587884761873    2.97401940573463
H         4.81584339773850    2.10422602708657    1.40015540968057
C         8.26475766217907    6.31653834084542    1.37308319463315
H         7.95706235058832    7.06319464580790    0.64090413603123
H         9.02289822788094    5.68702580003103    0.91688281190802
H         8.71401352389510    6.82717665245222    2.22489241070370
C         6.16556922168215    8.15872351914138    5.10759171832971
C        -1.18660283630529    1.74342082483092    6.59411930505431
H        -1.37384199311105    1.57059946353193    7.64269951532598
C         0.70088608619261    3.28914361581296    7.22895249525849
H         1.75360423864672    3.06506596640122    7.05705118441214
H         0.43697271322475    2.97766081815213    8.23517082136758
H         0.57462836233320    4.36963289374407    7.15572498550353
C        -1.97065743143468    1.11714426102370    5.63943664180446
H        -2.76668118180160    0.45825579726575    5.94921422060771
C        -1.74092808182806    1.33024633791134    4.29028044172232
H        -2.35769890274474    0.83759346392638    3.55453912225965
C        -0.45435951792422    2.42453523880533    2.41866660686361
H        -0.60694555448032    3.47731466030218    2.18004482549363
H        -1.11641537516768    1.82881507636441    1.79744185707837
H         0.57745986965742    2.17661940773616    2.17008990995045

