35
CSD_code = EMOXIP | q = 0 | S = 0 | Stoichiometry = C16H13N3NiO2 | MND = 4
Ni        8.10019290237284    3.68135230572213   10.09339001329995
O         7.90707555512697    4.19362510993391    8.34679057882286
O         8.29764657395600    3.18911610696720   11.83435974371836
N         6.72138851890156    2.45114491259673    9.77309944999984
N         9.54125470068671    4.99065721397250   10.31463011455765
N        11.21601063473961    6.10900667056586   11.16779331264215
C         6.97605815906380    3.52362013380632    7.72020235509142
C         6.65152577276070    3.73874385702042    6.37291041839328
C         5.65446469664574    2.99086447151771    5.78778190246986
C         4.96188176823879    2.02463964118320    6.51177209749717
C         5.26185857786183    1.79218562765734    7.83871434955392
C         6.26881659391412    2.53647953969907    8.44942570042581
C         6.22480514838170    1.60225184719152   10.62791531714461
C         6.63275036492140    1.46612438549085   11.97909604349428
C         6.01290057199412    0.50881661088365   12.80326751834986
C         6.37830622970540    0.35087062427091   14.11324244919093
C         7.38786398259342    1.15786774885247   14.64734110643060
C         8.01404044405846    2.09891733475190   13.87469876767054
C         7.66780180376196    2.29139265213927   12.51530862768758
C        10.32805758877022    5.11891100377253   11.36125980818532
C         9.93776193218224    5.93449614499313    9.41090128570561
C        10.98152101205185    6.63779924047572    9.93134217707989
H        11.92765378575910    6.40601982567618   11.81572181479320
H         7.19121427689018    4.48987458987057    5.81677798986080
H         5.40401518577320    3.15619814024778    4.74968368408846
H         4.18285955796432    1.45113735877690    6.03231752033971
H         4.70897641225660    1.03778210376931    8.37837667692158
H         5.43118394116651    0.93225434821354   10.30389425493014
H         5.23262342654030   -0.10766653024800   12.37850613160541
H         5.89401596691109   -0.38806301258373   14.73316203512399
H         7.67606509940626    1.03600172038541   15.68178097117279
H         8.79340480410725    2.72400892614889   14.28561981931830
H        10.26933728961006    4.52197290325651   12.25018095263738
H         9.45003468682958    6.03131427020546    8.46162967829318
H        11.55763203409576    7.44678217281705    9.53340533350394

