41
CSD_code = EMOYEM | q = 0 | S = 0 | Stoichiometry = C19H16N2NiO3 | MND = 4
Ni        2.74025014954042    4.26942890895409    7.37464646899483
N         1.77745311635912    4.11196393748756    5.77926678441853
O         4.01097014181401    3.19475907941679    6.59882550089691
C         2.45513652336357    3.29646612210829    4.86139375432945
N         3.81846645757176    4.36428006306346    8.98896840530693
C         2.86777419854786    2.12310494319776    2.81711333455807
H         2.56159735027775    1.84212366693041    1.82070492221855
O         1.50126978164016    5.33905056029657    8.16555379528174
C         5.37529326320019    4.49329869812533   11.28398111827508
H         5.99372652438581    4.54735047265817   12.16560125753892
C         5.13210851588759    4.56492552021060    8.91155365276159
H         5.55225023350695    4.65614622674946    7.91769125724415
C        -0.10213007685394    5.50534740529232    6.38861365379731
C        -1.58598720279704    7.15916071067310    8.07760739458776
H        -2.16439549885271    7.80049166516240    8.72714787782063
C        -0.39780756702270    6.64143487771710    8.51795121836289
H        -0.02321593656396    6.86308520122765    9.50629487050929
C         5.95331408899976    4.63896998945596   10.03081085524232
O         8.05015088764683    4.99658266305951   11.11933436063885
H         8.99210577810810    5.14444704833579   10.99148024290507
C        -1.32897227710544    6.05578638308233    5.97194994278655
H        -1.68584891080603    5.82354233754550    4.97800119813164
C         4.49245477012477    1.99975331727380    4.59362650201410
H         5.42808317077334    1.64188884909328    4.99521141002747
C         0.39050846317170    5.79943475927025    7.69690090630405
C         3.68389933236855    2.82597569730858    5.38675048728563
C         7.43139069175300    4.86642461153094    9.86162429230523
H         7.85495658426941    4.01586982203735    9.30490267900307
H         7.58351704936870    5.77291716270428    9.25581438548270
C        -2.06180836526317    6.86820629778711    6.79440977796707
H        -3.00005736738840    7.28425125557729    6.46057666075456
C         2.05380497526454    2.93948671330625    3.57612250250277
H         1.11974285567820    3.28501153652388    3.15896802984624
C         3.26546056075558    4.22670475290026   10.19605754872018
H         2.19413941799273    4.07904046414950   10.22546660282186
C         4.00861666434766    4.28305890389261   11.36142615671757
H         3.52232344534445    4.16364075269464   12.31673459981153
C         4.07748713613331    1.65940304819659    3.32541760445656
H         4.69987477763299    1.02144268530641    2.71447063300969
C         0.62950481731389    4.66801651292077    5.50916751493492
H         0.17569147951043    4.49172637677492    4.53635983942642

