91
CSD_code = EMUGAU | q = 0 | S = 0 | Stoichiometry = C37H48N4OZr | MND = 5
Zr        1.81730258183171   14.37445559216217   19.79525995568736
N         0.51356686088547   14.08060980898700   21.43892430225125
N         0.74205012529433   16.11676882388830   19.38898815962595
N         1.32152118367638   12.90291196711231   18.45028231456509
N         3.72529486678644   15.00293043301260   19.37405107574643
C         0.36504172918489   16.52980030132098   21.81988091203350
H        -0.24989884228498   17.20277195221821   22.43160706277293
C         1.81939478590386   16.85515549381454   22.11258560053990
C         2.47214237109816   16.25739753536365   23.18845263079201
H         1.96027925067474   15.50019272597845   23.76832851796745
C         3.74114371996322   16.66746420458609   23.56310976737726
H         4.22729754711141   16.20347676000274   24.40988849636510
C         4.37594067049632   17.68516861178814   22.87205173442005
H         5.35851988663028   18.01632307862222   23.17449356811215
C         3.73778734732667   18.28242189141401   21.79745973966560
H         4.22221325615027   19.08784566769549   21.26388678645543
C         2.47177717836515   17.87117086522415   21.41810110743077
H         1.96366750162382   18.37199197415536   20.60576202267156
C         0.03038743166169   15.11223795962731   22.20730348727987
C        -0.72985984606740   14.66589878681200   23.26844908781039
C        -0.74881940253014   13.24558552699175   23.15950906203440
C        -1.33081065790941   12.21125418629581   23.89341576876471
H        -1.91411553691003   12.42445580430120   24.77830020559328
C        -1.16054849142306   10.91452390637904   23.46504767374042
H        -1.60587332687946   10.10267359418639   24.02271648786816
C        -0.44028736855136   10.62032175316195   22.30086952950752
H        -0.36119922700736    9.59004426467368   21.98074774362110
C         0.15146865989859   11.61768457287346   21.55520589150556
H         0.67339584181290   11.41066259324805   20.62606439472307
C         0.02068944053469   12.93473912682327   21.99833179669855
C        -1.40702684396694   15.49512785733626   24.31109175556518
H        -2.25732985812865   16.03389713286023   23.88948989125782
H        -0.72202334878011   16.22862373671337   24.73882541444305
H        -1.77352344494136   14.85859684782275   25.11274454543245
C         0.01800617378128   16.76136659505573   20.37181818059227
C        -0.97380528414644   17.56036731844796   19.84609440133130
C        -0.89185233272991   17.40651806604522   18.43005823414554
C        -1.59739729712620   17.92771282644782   17.34557957613024
H        -2.41545615010549   18.61677073277100   17.50115882001252
C        -1.23419193643189   17.54733546808311   16.07369912590213
H        -1.77151822675336   17.94099630842508   15.22261227075342
C        -0.17561341614276   16.65916976915914   15.85265980063900
H         0.07993167166321   16.39097610371070   14.83698785710126
C         0.54238251845871   16.12825263284893   16.90242267103990
H         1.37464853986844   15.44872843250521   16.74275376746180
C         0.18114315464640   16.49789810372132   18.19794661339823
C        -1.95534207656581   18.40644905683898   20.58937537316914
H        -1.47836454990407   18.92468097715836   21.42120462242785
H        -2.38565246729934   19.14995182612304   19.92268775781272
H        -2.76817161557594   17.79801405831219   20.99035109672440
C         2.35167067283958   12.58624774130017   17.47887623108117
H         2.23626753541626   13.19299076881792   16.55182035078284
H         3.33019085293254   12.82182125135105   17.92506653017537
C         2.36939976441531   11.10787655676252   17.03270207977303
H         3.26721077080234   10.90723136720847   16.45286851492816
H         1.50606681141737   10.88042111243636   16.41314720791430
H         2.35613737149474   10.44846442670710   17.89774829193387
C         0.00325195841455   12.84740585333418   17.83187751238497
H        -0.22532441648282   11.80814741078544   17.53143571258089
H        -0.02376551191883   13.45941190467272   16.90377264688048
C        -1.12480439252121   13.31446814258089   18.75239328345139
H        -0.96658029940803   14.34629943880071   19.07570604121926
H        -1.19885674237388   12.67179099506558   19.62886644492847
H        -2.06913605968929   13.26700111277211   18.21093447449455
C         4.06852329168238   15.67138175377485   18.13039068729563
H         5.14948451565531   15.57356104458363   17.92292649005678
H         3.53901637823596   15.17446425533231   17.30541121925361
C         3.71491290767318   17.17200133402262   18.09205876778381
H         4.31803644450854   17.73000546814131   18.80517451680114
H         2.66269602225695   17.30808626820618   18.33780605979549
H         3.90182396226127   17.57338930553414   17.09804466585343
C         4.68870042977685   15.30335330295840   20.41652311521193
H         5.01802150183164   16.35591578478854   20.37023825688453
H         4.21615851977541   15.15714699365997   21.39988751583856
C         5.96410696563227   14.43359487140580   20.36245398317023
H         5.72065602938382   13.38315381712942   20.49786252310697
H         6.65464555836143   14.73840307821274   21.14637828766754
H         6.46279038148321   14.54837694690694   19.40277046398571
C         3.55332259974051   11.54766060971198   20.58148368968456
H         2.72964328540280   11.05612111921073   20.05301701760361
H         4.34624012074288   11.77716786733601   19.86077985204108
C         4.05664553307447   10.69371540085940   21.74904586625293
H         3.86609738906695    9.63506084807861   21.59169040114386
H         5.12802387937523   10.83649012959317   21.89846265291881
C         3.27842502543219   11.26834309858307   22.92924741028893
H         2.26633614583586   10.86346507932111   22.95713654344790
H         3.76380605011444   11.09545268236119   23.88648386370491
C         3.23250873866846   12.74451543522658   22.55442468098500
H         4.18215615495055   13.23704799632197   22.81381656524005
H         2.40186459762338   13.27863327881123   23.02068085516251
O         3.04761650891507   12.77634053421414   21.13405206727962

