68
CSD_code = EMUPUZ | q = 0 | S = 0 | Stoichiometry = C24H39HgINPSe | MND = 3
I         0.34345399350253    1.37703868155973    4.26674910920142
Se        1.90204115470313    5.87781574926659    3.28337246749296
P        -2.43867762420880    4.22800406838865    3.03494668727424
C        -3.51976159463891    4.32162115895480    4.54642952964445
H        -4.55467179384090    4.50651048013770    4.23602240766978
C        -4.42450829542658    6.13201861181149    2.13351541503686
H        -4.44811961952934    6.62549099984672    3.10664974165842
H        -5.17375748610802    5.33756074660450    2.13215293369680
C        -3.03197211115116    5.56309762157374    1.86764144913942
H        -3.03332083798196    5.08491858365316    0.87855533665386
C        -2.91398309638907    2.64121052322489    2.19535376185307
H        -2.66053664509705    1.85956282143052    2.92490338210823
C        -4.77213171312952    7.16128405663831    1.05817080243770
H        -4.79505211547760    6.67434860370502    0.08006962406611
H        -5.76762475768476    7.56617164677285    1.25215844650357
C        -1.99695677168869    6.68969303942081    1.84236738362447
H        -1.95547054465869    7.17579946709617    2.82006773276697
H        -1.00524003947931    6.27180328437477    1.63569691753709
C        -3.74372140410523    8.28805775826135    1.03899813355717
H        -3.75034973388955    8.80598299632208    2.00092989857996
H        -4.00275415665261    9.01327816449835    0.26544089653190
C        -2.34985304510522    7.72554329886334    0.78202292957823
H        -1.61143503190551    8.52822830861065    0.80049524822442
H        -2.31969883129879    7.26105936750614   -0.20678782062200
C        -3.45488573205180    3.02714769685002    5.35815005626836
H        -3.83818511295519    2.18689199762715    4.77773460813480
H        -2.41351581677994    2.81044935739361    5.61523475318564
C        -3.01821915301146    5.48715751076212    5.40197353573963
H        -1.97166885371262    5.29372776249037    5.66955783818976
H        -3.04261928773878    6.42154930216325    4.83564662403496
C        -4.63201533518185    1.10925611007732    1.24495580170504
H        -4.41538331357680    0.36353768334474    2.01295000534899
H        -5.68245879382116    1.00706999819702    0.96432999368289
C        -4.27492747039344    3.16147902168062    6.63929646342593
H        -5.32536877442574    3.31960290811768    6.38095278325184
H        -4.20647117173223    2.23413149589716    7.21024396683467
C        -3.74151225714810    0.85708820976144    0.03171699219263
H        -3.91328251981156   -0.15090804430597   -0.34909755720550
H        -4.00169979912302    1.56241027466818   -0.76169218262189
C        -3.84097614306199    5.62395489809464    6.67810767954850
H        -4.87943288794944    5.84540108649454    6.41863069274523
H        -3.46053366943513    6.45588440590892    7.27435506431503
C        -4.38631999241669    2.50619170998939    1.81405090742020
H        -5.02724750032359    2.66562627760304    2.68389255093478
H        -4.64534731266326    3.25029706657436    1.05754544864237
C        -2.02663698064006    2.42163720397436    0.96803772106290
H        -2.24664170596099    3.16726531762017    0.19957092460535
H        -0.97007996971368    2.53282756396612    1.24459047839258
C        -2.27018965887260    1.02719358031470    0.39969916702111
H        -1.64457196157754    0.87321835746354   -0.48123437771474
H        -1.98844861809822    0.28138386031866    1.14560341166753
C        -3.78068979704718    4.33070070950908    7.48394867073563
H        -2.74978262712245    4.14326970591627    7.79246046197444
H        -4.38851719661139    4.42307193834300    8.38582860533943
C         0.79945915729106    7.41541651648169    3.65462505645234
C        -0.00220976996093    9.57713660848698    2.99903891832124
H        -0.01150812255737   10.39984285219068    2.29770962456337
C         0.78624559338058    8.47263511425854    2.75489150497035
H         1.39440475385600    8.42209653884806    1.86312423624873
C         0.04339250683741    7.49015833376217    4.81600298984517
H         0.08720497769935    6.68726326072200    5.54417832626615
C        -0.75546592934813    8.58920213398404    5.05404031394560
H        -1.35146855982884    8.63809879091871    5.95509538398726
N        -1.66676735974806   10.70385247502843    4.33488493556146
C        -0.79798335221135    9.64685779597413    4.14393371544371
Hg        0.30392873872343    3.99263601397202    3.72243286719961
H        -1.96811499073269   10.86329196593646    5.28327586186409
H        -1.45228612919917   11.54659659407391    3.82560276224456

