23
CSD_code = EMUTUB | q = 0 | S = 0 | Stoichiometry = C9H6BCl3FeO3 | MND = 8
C        -0.61896647174752    2.69906374728258    0.45968356380714
O        -0.79251121962108    2.28041673659524   -0.60640570232897
C        -0.66243769339612    3.74816739429835    3.28965766722204
C         0.67852747531284    4.19724434460476    3.37484927622589
H         0.99386042743533    5.22154125805519    3.26003252330560
C         1.49472324808630    3.11592501250158    3.82642258471183
H         2.53222697501813    3.18995216460929    4.10904549855660
C         0.66276849058346    1.99278495270399    4.04682573613550
C        -0.65726245975496    2.36953499355127    3.65733520033229
H        -1.54522654182853    1.77791705068667    3.81311441392490
C         1.05633232964771    0.70820016639749    4.69421386767864
H         2.09864516368196    0.46918419593681    4.49755410955277
H         0.43056682062994   -0.11205662743728    4.35202420607782
H         0.92666055013123    0.80331475091109    5.77354461479053
C         1.76939840404001    3.34969188688563    0.78045151972364
C         1.03821707697565    0.98481805453711    1.33050877140648
B        -1.93691220322064    4.59965433163422    2.85050883515565
O         2.51166014252765    3.82311899298709    0.06023262896026
O         1.32987831216539   -0.05856118537195    0.98045888052846
Cl       -3.46026960955551    4.10291001566629    3.67066306878372
Cl       -1.64432650727149    6.37642136928996    2.79718978556741
Cl       -2.15923489398977    4.03071026313580    0.89026499100458
Fe        0.60368218415033    2.60514613053887    1.86382395887744

