99
CSD_code = EMUTAH | q = 0 | S = 0 | Stoichiometry = C42H52N2O2Zr | MND = 6
Zr        2.14630368029475    8.70973080781885    9.45629256599434
O         0.36123736883445    8.83433708662190   10.29024892024785
O         3.97517622496356    8.30940202779717    8.84444016200282
N         2.55456734118863    7.88785427223499   11.64950150395414
N         2.18752331427782    6.26951165141306    9.34711771060267
C        -0.30161438564334    8.56639096024972   11.36543473993986
C        -1.71259938634620    8.78234488651935   11.39718810751350
C        -2.36303338458602    9.33212714147899   10.16295187639719
H        -3.41453621528865    9.05871924433114   10.12063990099490
H        -1.84592514137028    8.95627514867046    9.28095139064404
H        -2.28723551777003   10.42010245377069   10.15017075990656
C        -2.43213662860871    8.50090954173548   12.52943468727783
H        -3.50028696793058    8.67299628294433   12.53005900449334
C        -1.83332937827028    7.99318757584618   13.69352914604123
C        -2.67681633482724    7.70210934131002   14.89859044989538
H        -3.43648512837103    6.95816855780212   14.66041230728221
H        -3.18820663720990    8.60428795916737   15.23236330867745
H        -2.06767763663108    7.32614966347972   15.71655194882314
C        -0.48179236685710    7.76953452706770   13.67918699647097
H         0.00853586354784    7.36932406936191   14.55654043200352
C         0.30793447094489    8.04108731253637   12.54434140523585
C         1.67766768793929    7.65658932452691   12.57040850388093
H         1.97865331273639    7.08649268043705   13.45912610058851
C         3.71299378389398    7.10553573914324   11.64853997873713
C         4.97705282455420    7.68105126543327   11.61135246228767
H         5.06791716431766    8.75874774945352   11.63995303066362
C         6.09337363994710    6.86731298788323   11.53397107589167
H         7.07850400189560    7.30831558743408   11.50400974988108
C         5.95350530459716    5.49273056171336   11.48143658597453
H         6.82964239721716    4.86553163547311   11.40476492242702
C         4.69609553111595    4.89562178928431   11.49702780224831
C         4.58054657324232    3.40405699222879   11.38368177544090
H         4.87772244995572    2.92953909597107   12.31910630135574
H         5.24055148444119    3.03578147081300   10.60021758970965
H         3.55983285658717    3.10661732449183   11.15637286973151
C         3.56736584076642    5.70038401995004   11.60133513017547
C         2.17150199143322    5.19273370835865   11.49456311340874
C         1.49873515414766    4.52278011190970   12.51132524999691
C         2.20592804127875    4.11223392466644   13.76915091575865
H         1.57391165839035    4.29577504789724   14.63625739103396
H         3.14150854731774    4.65440534761000   13.88695474093891
H         2.43105202685570    3.04581816515424   13.74312122562114
C         0.14241024520091    4.25128525502123   12.35785481426491
H        -0.38101824870936    3.73338158421886   13.14806092297007
C        -0.54574371546343    4.66111081573798   11.23121996236985
H        -1.60379135960241    4.46427558054449   11.14613568963794
C         0.11432350788595    5.32318115390569   10.21058575596373
H        -0.40688370123402    5.64888912500468    9.32133232019829
C         1.47321976830434    5.57775610888300   10.33222878970558
C         3.02856622949615    5.61045453659085    8.63152028757299
H         3.03124969766011    4.51202612135598    8.68203458542465
C         4.00988453811769    6.17998598839983    7.76453231484735
C         4.62095684107486    5.34949067629227    6.80787041358103
H         4.25956791589609    4.33446456070633    6.70652855412977
C         5.63457808989535    5.79805811407929    5.99885098997139
C         6.26951918319898    4.92455131547320    4.95799595664569
H         6.13545287783101    5.35612985267575    3.96641630099354
H         5.82937967488421    3.93059634121176    4.96494867940077
H         7.34013485265786    4.83252241452128    5.13835594328958
C         6.08423823994706    7.11346777358886    6.17781167547274
H         6.89471026219102    7.47331823389379    5.55777517833249
C         5.54147705376559    7.95686560587038    7.11574098717436
C         6.06120400740359    9.35456994831719    7.28832922628669
H         7.14966173702998    9.36698079738821    7.26273542464984
H         5.71375156471453    9.75479294544298    8.23925620509022
H         5.69408493603705    9.99925260040076    6.48922760006380
C         4.45801812730502    7.52384359617507    7.93618710100597
C         2.87598272216503   10.85114481655403    9.73127637509554
H         3.94034559620622   10.70403564506527   10.00909773750421
H         2.90319439579734   11.43143899587172    8.79125601263829
C         2.27802421788323   11.78702270412082   10.79601021926545
C         2.31475107487950   11.11728568574956   12.17523877217833
H         2.01691160735531   11.82198964451438   12.95242311793582
H         3.32047494953509   10.76375825032326   12.40675476420914
H         1.62718290526358   10.27330197475814   12.20013561844451
C         3.08672684148888   13.09596093519360   10.87119474288520
H         2.65823106432257   13.78038628801076   11.60253184314369
H         3.09636628726553   13.59511818593174    9.90390303777744
H         4.11694552915629   12.89236860481538   11.15865521316972
C         0.82268165317077   12.13334367666804   10.45611790930560
H         0.24554734662486   11.21794352935194   10.31922748546775
H         0.77276638680388   12.72226203080625    9.54142721409583
H         0.37008296520967   12.71731752448237   11.25743230313524
C         1.15723811234170    8.32372793773394    7.45045012680584
H         1.66649966073662    7.46764029098088    6.97009342713408
H         0.11532912944305    7.99754568268561    7.63685367900365
C         1.11445041162304    9.45643449239616    6.42045871038801
C         0.41691866348081    9.00654212700058    5.12377821788351
H        -0.60722340551681    8.69869205586891    5.32771619523847
H         0.94388059603351    8.16359413408157    4.68000967599484
H         0.39028538816800    9.81472199941063    4.39384358061453
C         0.34707492507870   10.64703295398298    7.00724180624240
H        -0.70060831492750   10.38535579131054    7.15182859195829
H         0.39126609507742   11.50824553758889    6.34067054094289
H         0.77724520957417   10.90785312686253    7.97656715591609
C         2.55011612954523    9.87867686696099    6.08081122349259
H         2.55546995699899   10.73752642707956    5.40934746616306
H         3.07546706484128    9.05909381395420    5.59013378378291
H         3.08745708193206   10.13128218220936    6.99865393303693

