53
CSD_code = EMUZER | q = 0 | S = 0 | Stoichiometry = C21H29NOZr | MND = 12
Zr        0.08544398088018   14.96752304364101    1.98838326687743
O         0.53579482839656   13.75614878732247    3.36822680315361
N         2.04603671246103   15.39273519320220    1.90690410731699
C         1.86926688866876   13.38994686824507    3.39103345265785
C         2.42208282265082   13.47443901166368    4.83161760026510
C         3.77432352133647   12.76415841219496    4.89821469311919
C         4.69898215413874   13.71888222064592    4.12001013061673
C         3.76401348864520   14.86477737650019    3.71524388564209
C         2.81959836107181   14.36414489667241    2.58479713337554
C         2.80704568025520   14.94854955266400    4.90030258638451
C         2.76425694698359   16.37991949851063    1.10334375685275
C         3.00370148241340   17.68355447181537    1.90829422365274
C         4.10943361028536   15.88849256312689    0.53345576534123
C         1.88387642992081   16.76469639049152   -0.11091498575661
C        -0.25609098727155   16.94810024221164    3.54430089548045
C        -1.14067384510136   15.93642328076944    3.97310296419462
C        -2.11178635743659   15.75019064585766    2.96888734823693
C        -1.84219136066048   16.66307665058758    1.92696871876331
C        -0.69300582564262   17.39910421952925    2.27641240762908
C         0.07411807520993   12.70240453295391    0.76348673213986
C        -1.27118439963804   12.94209147552916    1.10191562586375
C        -1.70783056657525   14.06514617089258    0.37587516273653
C        -0.62377130115239   14.54885962404730   -0.38669789746971
C         0.48430526990088   13.69688444857066   -0.14593497640981
H         1.97082218413750   12.35530835651866    3.00437643886197
H         1.68856498519301   13.12745179379696    5.55821467294873
H         4.09929409505170   12.65452087156649    5.93323558502705
H         3.73039304812145   11.77114341732735    4.45155606927843
H         5.50384639648363   14.09134620211940    4.75521296708426
H         5.15188894338643   13.24098297516791    3.25116383718703
H         4.30173435657854   15.77700565009280    3.47415129007803
H         3.40409054338658   13.76847038707370    1.85641273941190
H         1.95233551507732   15.59546004540380    4.68986056603869
H         3.29129657475680   15.23114462951157    5.83416414348269
H         3.64220435230560   17.50844255172558    2.76786509186409
H         3.47858192884233   18.43534596374971    1.28071601757742
H         2.05214183940216   18.06977284298385    2.26694061208003
H         3.96644970278685   14.97307954301753   -0.03714715541641
H         4.51548640981903   16.64731165602598   -0.13170766727322
H         4.83601651190434   15.69918148007812    1.31688004690539
H         0.85566439928561   16.96321212828017    0.21270043262472
H         2.28004971219346   17.66132193531659   -0.58576385906436
H         1.88342443324188   15.96546647328664   -0.84988162169160
H         0.51803999551743   17.40925810237182    4.14574202191921
H        -1.12615816623488   15.44807475860325    4.94002153090345
H        -2.98669402567324   15.11541544779348    3.05032512119220
H        -2.48064704306188   16.86817143901536    1.07592081089191
H        -0.33872804161093   18.28707781206773    1.76556099477995
H         0.66045987824732   11.84630001825258    1.07091563436643
H        -1.88886203105158   12.30344845282164    1.72155293286546
H        -2.73249522527705   14.40722145643703    0.30342157703847
H        -0.68877718363531   15.30578771338214   -1.16118056663097
H         1.42463030108624   13.69522631856627   -0.68545966499435

