80
CSD_code = EMUZIV | q = 0 | S = 0 | Stoichiometry = C36H41NOZr | MND = 12
Zr       -1.05368154204503    6.13338681745376    4.56197177996147
O        -2.88097485351996    5.55288894553205    4.53445789044902
N        -0.70159688718128    4.52823812508650    3.35306464750126
C        -1.98910294306071    4.32351934422920    2.66105647510449
H        -2.07104299822076    5.17866964310963    1.95396288917597
C        -3.16596071777576    4.51323078104011    3.66285699495804
H        -4.09001922340513    4.73309914315490    3.09527817456577
H        -3.34565966645502    3.59079529755524    4.24169090081143
C         0.23522889034079    3.50056558754333    3.40418721460277
C        -0.01452909883707    2.18347419724462    3.85284804963822
C         0.97587687072965    1.21792048006833    3.74342227915624
H         0.75775137495018    0.21264626187531    4.07715993694384
C         2.23038695178654    1.51446161228019    3.24719254666350
H         2.98271652497274    0.74538430728736    3.16201235662353
C         2.51686076857226    2.82112225146820    2.89220978124642
H         3.50571780769534    3.07737461161845    2.53677201544763
C         1.54678666778145    3.80287773038855    2.96563625681762
C        -1.29028040593908    1.81931588864539    4.55356265005774
H        -1.67845651560053    2.69197755820429    5.08041990815000
H        -1.09917022438193    1.02682788691054    5.27601386938403
H        -2.04515725397555    1.46024817900974    3.85566153743410
C         1.86265824682985    5.21509363023291    2.56355452904660
H         2.90976837158674    5.31002872404376    2.28116571935671
H         1.64735748404851    5.89092229607538    3.40063595093144
H         1.24393605932501    5.51775628888240    1.71633646779714
C        -2.07273030518523    3.08637774020787    1.78940139104721
C        -3.16966420878953    2.23215486408229    1.78546389493964
H        -4.01195773893061    2.42134566709568    2.43294611707198
C        -3.20346326332630    1.12786645834494    0.94977688301527
H        -4.06492593243292    0.47576757243279    0.96401010833030
C        -2.14284138175282    0.85580086991268    0.10470331653659
H        -2.16751072627314   -0.01195604938960   -0.53756721711752
C        -1.05724857236530    1.71401983456669    0.08039277928452
H        -0.22946221533984    1.52303172931111   -0.58638999504926
C        -1.03084399433208    2.82352227119093    0.90407634904327
H        -0.18838986758293    3.49666216807001    0.86202464166716
C         0.11644095227520    8.03706526744463    3.45816604820761
H         1.18420983499296    8.16276689400544    3.31515569216678
C        -0.79325571847328    7.53866590269198    2.48204664944762
H        -0.52795477170736    7.17965675181335    1.49337343043709
C        -2.10297043054632    7.83924419037622    2.92059623209751
C        -3.39796156819507    7.73854372526271    2.16073125537544
H        -3.48998762337286    6.78571955117736    1.63026715218185
H        -3.42390055082314    8.53239873468708    1.40207498944908
C        -4.57347450580283    7.92608286909014    3.12149813106613
H        -5.50799729274502    7.98228316363269    2.55847810794276
H        -4.62177941137179    7.06785235678475    3.79659626341396
C        -4.37812418608679    9.19349678068452    3.95121999398954
H        -5.28864788540160    9.42235580276575    4.50942666496114
H        -4.17018550858459   10.03415200259298    3.28450188692278
C        -3.20815558755281    9.00783616578552    4.92014515973574
H        -2.97454794003052    9.95753336140423    5.41202725597104
H        -3.50615714208615    8.28744016071518    5.69483891379562
C        -2.00758315150597    8.49637841644362    4.16807285433025
C        -0.63823998142206    8.65543035622608    4.48327353772722
C        -1.50071051289492    6.28127719036515    6.98118632009532
H        -2.48455390251737    6.54948915780208    7.35168053315832
C        -1.03541029115527    4.95897347341103    6.77025655894147
H        -1.58932317110967    4.05613471380125    7.00044963566532
C         0.33994038655550    5.02523836537153    6.42782006442050
C         1.34450118971403    3.90414106500288    6.51126612567994
H         1.08682724510400    3.06665461516810    5.86028765105705
H         1.33782598010849    3.52759943764690    7.54227713651937
C         2.75269787221953    4.40222638501750    6.18047822605702
H         2.84741725500126    4.54433192219547    5.10323533779302
H         3.47995418797399    3.64414169093023    6.47834990731515
C         3.05032108724609    5.71816870859349    6.89544663826280
H         4.10080776784471    5.98692569384979    6.76446611867753
H         2.86240264694745    5.59645203294803    7.96445734611654
C         2.15631954002661    6.83718503902732    6.35354105261963
H         2.29507996969661    7.74115289547423    6.95364092661145
H         2.47025578610162    7.07486106135768    5.32830597392670
C         0.71669950677596    6.39359088277510    6.42235043181189
C        -0.41559966202341    7.16646413597341    6.78616975090223
C        -0.07810529357231    9.38471267309741    5.67177443895845
H        -0.46167225933216   10.40986955273776    5.70475262327402
H         1.00905706447557    9.44351732923797    5.57261915066905
C        -0.44493631221900    8.65659692857628    6.98215253945600
H         0.25461835052146    8.95303641015036    7.77189320842612
H        -1.44701744495894    8.95283747114031    7.30248299377271

