57
CSD_code = ENABEA | q = 0 | S = 0 | Stoichiometry = C21H30IrNO4 | MND = 6
Ir        1.61197802199948   -0.00000026948646    3.01622031047763
O         1.41623729475707    1.43874155368253    4.46052352383335
O         1.65076994883832    1.43582257765863    1.55380657977246
N        -0.67934376211195    0.00000050790512    2.79313162278701
C         1.28549991956623    2.67050658645738    4.23126400181922
C         1.29952384516522    3.30435967496831    2.98618830579244
H         1.17037336696733    4.37598458184748    2.97457529847377
C         1.47899438724598    2.66654503456093    1.75527019223119
C         3.68263260449754    0.00000020909794    3.33234166183976
H         3.78346015314817    0.00000016737137    4.42523492008667
C         4.37199903005976    1.24153322268216    2.78511928944403
H         4.29399098618843    1.25541460365111    1.69683448311402
H         3.89981462512549    2.14535314645737    3.17456439845471
C         5.85238361069239    1.24832539453267    3.18067374058154
H         6.33631330588463    2.14405479033926    2.78291111062982
H         5.93373096567027    1.27773593783417    4.26958088481328
C         6.54971184083240   -0.00000011618300    2.65507318904962
H         6.51673305575626   -0.00000017358364    1.56334074115419
H         7.59974052511709   -0.00000017502180    2.95981737234269
C        -2.62092413395497   -0.00000101582232    1.42190712726823
H        -3.04425762531833   -0.00000030213458    0.42951385184143
C        -3.43228924612544   -0.00000091594945    2.54579339945067
H        -4.50841081084327   -0.00000070189573    2.44915646503533
C        -2.83428697373781    0.00000019532995    3.79635686253882
H        -3.42770181138222   -0.00000064724682    4.69742842043819
C        -1.45090156881203    0.00000133441903    3.86946238375956
H        -0.93208894342938   -0.00000043837036    4.81734593049649
C        -1.24661247482297   -0.00000075657604    1.59655903179364
H        -0.56673375439146    0.00000051247589    0.75664664527983
C         1.47351221186718    3.55100785738823    0.52359625096756
H         2.30167910534865    4.25459234587495    0.57302042420379
H         0.54604015588239    4.11675484906918    0.46856886097505
H         1.57924724742397    2.93599870917671   -0.36555575013782
C         1.09018818345633    3.55736379213586    5.44596256124065
H         1.08667946144679    2.94603134104670    6.34391463645525
H         0.14917924711973    4.09757085487646    5.36923680231082
H         1.89754301117875    4.28342987748436    5.50847947013107
O         1.41623827795161   -1.43874161277022    4.46052394785525
C         1.28550114431450   -2.67050658000984    4.23126415156351
C         1.29952359633249   -3.30435937541438    2.98618825532842
H         1.17037309949757   -4.37598427580283    2.97457523075533
C         1.47899261123787   -2.66654467486622    1.75526992980800
O         1.65076837588659   -1.43582233010078    1.55380605908324
C         5.85238333680710   -1.24832543119917    3.18067385019673
C         4.37199873359459   -1.24153305595539    2.78511942815022
H         4.29399074618344   -1.25541457001863    1.69683462603460
H         3.89981417836217   -2.14535288442262    3.17456458777341
H         6.33631290140942   -2.14405493777529    2.78291130165566
H         5.93373074711735   -1.27773590722011    4.26958099190989
C         1.47351203318049   -3.55100764450394    0.52359609854826
H         2.30167918016331   -4.25459160097761    0.57302056852062
H         0.54604049057685   -4.11675499483971    0.46856881504388
H         1.57924702733496   -2.93599884300193   -0.36555614186607
C         1.09018797334164   -3.55736370800648    5.44596255651322
H         1.08667923121401   -2.94603122818828    6.34391460159126
H         0.14917875593210   -4.09757037885495    5.36923656035622
H         1.89754255325685   -4.28343011212441    5.50847958043331

