32
CSD_code = ENAJAG | q = 1 | S = 0 | Stoichiometry = C15H10N2O4Re(1+) | MND = 6
Re       15.34729751288848    6.77168215213531    8.42614451247151
N        13.89449404957404    6.30796956823047    6.93207720103039
N        14.17378033719980    8.55412838868434    8.36640208184240
C        13.78550330673825    5.20527906123310    6.21290589585357
H        14.55884271933461    4.45967202430818    6.34140551027979
C        12.74098989992864    4.98328844450745    5.31279863443709
H        12.71079492196897    4.06082976238656    4.75643032182165
C        11.77320524182455    5.94574859325293    5.15022771122804
H        10.95380235388752    5.80700611267904    4.46189838546035
C        11.86473898170150    7.13447807279853    5.89406740944453
C        10.92123052633139    8.19710931556665    5.78981917319354
H        10.09202300066243    8.07379487215917    5.11062089481870
C        11.06181557452005    9.33258464819011    6.51612122299815
H        10.34738691494839   10.13650262892800    6.43009027302709
C        12.15842109942951    9.50448444160406    7.40953030329406
C        12.35836864143137   10.66882886011255    8.17048466807585
H        11.65693635146960   11.48526481309666    8.09375092935549
C        13.45520736878682   10.74394886095143    8.99553207189195
H        13.64795953775914   11.62163176045883    9.59042429541950
C        14.33914668323492    9.66475329696576    9.06223127615766
H        15.21194073776471    9.71673233100875    9.69942546112295
C        13.10471253391053    8.46736825796519    7.54535309334651
C        12.95570198310068    7.26689598575814    6.77825561570331
O        13.54777421142546    6.07918063815660    9.86741038306256
H        13.44058126585161    5.12352115402973    9.94012458237911
H        13.60015357511114    6.42532111225441   10.76607906464041
C        16.69444622668456    7.40628039019542    7.16577568415931
O        17.43262328614860    7.80371854002934    6.39495187779978
C        16.15086630095538    4.98743159805195    8.47386946256871
O        16.56631361896991    3.92714387030582    8.50327099953231
C        16.44221975573544    7.31260614786512    9.95585947094136
O        17.03282148072203    7.64571429612972   10.87126153264234

