107
CSD_code = ENARAN | q = 0 | S = 0 | Stoichiometry = C44H58N2O2Ti | MND = 4
N         4.01930012125030    6.89990050772837   15.46371755565626
N         1.64924330989905    7.21929133091570   14.32883169428054
O         3.43283594293420    9.37986210624318   13.60469606232012
O         2.45537810284265    9.28346548152441   16.29922442340402
Ti        2.99041247169986    8.37820614401985   14.91688771104105
C         4.28209858459774    6.47251745295899   13.06837503599447
C         5.51226067701419    7.11900303999686   13.05836519279635
H         6.06028523329356    7.22410218114512   13.98510741759998
C         6.06637029061576    7.58087496169159   11.87581982431917
H         7.03037206460767    8.06974052015791   11.88303172993355
C         5.38013629292503    7.41298150708171   10.68510790904592
H         5.78759944295470    7.79976911230588    9.76238744141116
C         3.63263474868553    6.21377252850957   11.85157159260124
C         2.44289392226097    5.35775126728691   11.83636953394905
C         2.02686325585697    4.68126398874639   10.69072930967249
H         2.58086699690784    4.78383613199886    9.77031797493344
C         0.92301395208144    3.84914822737452   10.71846958262450
H         0.61850355264009    3.33063075847128    9.82127873638132
C         0.21145926703692    3.67899180059506   11.89403349357714
H        -0.65501184288158    3.03513264177758   11.91860027259398
C         0.62540376786715    4.33119037092183   13.04296716551609
H         0.07506212211880    4.19990078676746   13.96409769492433
C         1.74146290570452    5.15451742780442   13.02867749010335
C         4.17971622238582    6.72890707559378   10.67622220634920
H         3.65901734703749    6.59497788806901    9.73978167269086
C         3.71111967522854    5.96615353829076   14.38750523971328
H         4.14699055542563    4.96734636075821   14.55595389564457
C         2.17347898741585    5.86324186605101   14.28904691533873
H         1.80500252759752    5.25603193586202   15.13428632223471
C         0.30009114317076    7.39443030024748   14.65365651135058
C        -0.22562529046778    7.05670488084120   15.92154840331403
C        -1.58375290207060    7.22020387905127   16.15701604254503
H        -1.99528767106622    6.94653079029469   17.11802791110520
C        -2.42931417564962    7.72827843103375   15.18991623881937
H        -3.48469238155971    7.83841321941234   15.39302310282266
C        -1.91154859331719    8.10080317413457   13.96410659242252
H        -2.57528672682478    8.50321123687292   13.21323203583935
C        -0.56395047637013    7.94546694778459   13.68052663327370
C         0.64930629100808    6.54404309505199   17.04959953846802
H         1.70361786186030    6.61154009143882   16.74145451792383
C         0.52853442462001    7.42531554919174   18.29566574923107
H         0.89899291266937    8.41885940764485   18.06232450368616
H         1.13679569399370    7.01194548349089   19.09847423256516
H        -0.49795779818992    7.49738655679259   18.64717995568553
C         0.28492509947499    5.09720529056003   17.40097124117094
H        -0.73460860847536    5.04650692617059   17.77791272047814
H         0.95259539467983    4.71460300190230   18.16928364058595
H         0.35078656691536    4.44558512318497   16.53113094527565
C        -0.45903227881291    9.74085125543485   11.89971713840857
H        -1.53552216756584    9.79672630769161   11.75427206797560
H         0.01650956027788   10.00620327811363   10.95700294629855
H        -0.18057850698289   10.47414670693064   12.65197183889708
C        -0.03415762852937    8.32957759650023   12.31504597410667
H         1.06423943501737    8.28703568108044   12.36479264541463
C        -0.52410367698899    7.33254191418825   11.26077774607300
H        -0.25887196634455    6.31798000737646   11.53816649445220
H        -0.07872611037516    7.55504841667027   10.29293528032982
H        -1.60669197087430    7.38720742518065   11.16207661800942
C         5.10435486994169    6.66657515259390   16.28982554725093
C         5.31759642681243    5.42271905964408   16.93583495645078
C         6.50329364368727    5.19451528774270   17.61660825776404
H         6.67412683425931    4.22961453187184   18.07118275130490
C         7.46225655073016    6.17775474514993   17.75431112693842
H         8.38460480451147    5.97788966145414   18.27867444927092
C         7.19382354520615    7.43933835171809   17.25877197570241
H         7.90736424839422    8.23126134375422   17.43236859028520
C         6.04264720911659    7.70420979955303   16.53514977217675
C         4.23260099739872    4.36921701540024   17.04099597893399
H         3.33410780067049    4.73245282574367   16.53863286237046
C         3.85912502205334    4.17375645110733   18.51560488558501
H         4.70004056973308    3.79320233409836   19.08941384506558
H         3.03963641242359    3.46230039455468   18.60233082902908
H         3.55018571840738    5.12186954671472   18.95096760640505
C         4.64383082392640    3.02996820182160   16.42385666680620
H         4.95136685476476    3.14938607654036   15.38617084893293
H         3.81104187313441    2.32971246746488   16.45543519866484
H         5.47603119189450    2.59419167509373   16.97147135365340
C         5.78839123412306    9.12540500385031   16.07454227193301
H         4.92406883073683    9.12033364958885   15.37889824520286
C         5.40475848645161    9.97337675369085   17.29358282294750
H         4.48937345101865    9.58057150191468   17.73638322596883
H         5.24170437216908   11.01230540711346   17.00725368005487
H         6.19489182637029    9.94349656219250   18.04260256876205
C         6.99406437643787    9.74125539799943   15.35602932957913
H         7.81852074736972    9.90736952945459   16.04620389327677
H         6.72417698352564   10.70265300960302   14.92231095207559
H         7.34544974725121    9.09314202043842   14.55613424670194
C         2.03807674785332   10.60442451673308   16.30571649428213
H         2.89287611413560   11.25022155461130   16.00893488827417
C         1.58201405390360   11.05779714950509   17.70173987193543
H         0.64348396724050   10.57647890388535   17.96766647219132
H         1.43622867878995   12.13528933315598   17.71207466304195
H         2.33463538472451   10.79704347395057   18.44299238684119
C         0.90752063954737   10.79587435761176   15.28519317187981
H         1.26316387343409   10.42871651720513   14.31846451364045
H         0.62245629252048   11.84423883237816   15.21005663468798
H         0.03985465994497   10.20665223811933   15.58568967325493
C         4.04472475934379   10.25590610321558   12.73173304010509
H         5.08455786332909    9.91267948575224   12.55200142537474
C         4.10254983994974   11.67446905494854   13.32374114153656
H         3.09400602119539   12.06562977652201   13.44954879543535
H         4.65837476740141   12.33441639285549   12.66174604598311
H         4.59354936350807   11.65286528760007   14.29597905912770
C         3.30909633706286   10.27998658244018   11.38436850261136
H         3.22977543018043    9.26618767783857   10.99698876276745
H         3.84968037739985   10.89453126138646   10.66870051534348
H         2.30838342476436   10.68458682751912   11.52044483946341

