71
CSD_code = ENASES | q = 0 | S = 0 | Stoichiometry = C26H38BFeNO2Si2 | MND = 8
Fe       -2.61423958811233    1.04502731896376   20.24659015071174
C        -2.08769054307475   -0.46585046267743   19.57441685504238
O        -1.67832375966453   -1.48540672735735   19.22940393937123
C        -1.23172161450476    0.86876493169014   21.29049591445272
O        -0.27462478844292    0.67946361104155   21.90148062543994
C        -4.12148242528698    1.92991493730638   18.82441108524155
C        -2.80377991915308    2.33738665182086   18.43531264165675
C        -2.25176214811754    3.10488491677368   19.49292212614424
C        -3.23680414755090    3.19144375735718   20.53493952176503
C        -4.40071465779504    2.50256747679890   20.10058213919342
C        -5.11779521987354    1.29902841739582   17.90114323006889
H        -5.93573859195760    0.84323732444099   18.45137728365779
H        -4.65345058299731    0.52753511788227   17.29154877043520
H        -5.53312205088415    2.05625178759203   17.23269891743617
C        -2.20435453179429    2.14323842427241   17.07730025232348
H        -2.51620777503295    2.95379796994088   16.41557506525064
H        -2.53021217451159    1.20391257927280   16.63789420953480
H        -1.11825439044009    2.14196470618810   17.12457373350490
C        -0.97486284249779    3.88607114977474   19.44787154439463
H        -0.23640776393419    3.39408054911731   18.81982113454586
H        -0.55429708661433    4.00361766994265   20.44346179742182
H        -1.16273182269773    4.88061898690318   19.03831568530136
C        -3.15510833343994    4.10957147543176   21.71528387457935
H        -3.38100222243988    5.13140570334608   21.40288972671227
H        -2.15989415221082    4.10273527033546   22.15321456148960
H        -3.86907718961126    3.82151006739812   22.48118127089467
C        -5.71547487986113    2.49344716619097   20.81311274447587
H        -6.21482522436874    3.45514549788049   20.67890288628903
H        -5.58036558663018    2.32098602157443   21.87914107221492
H        -6.36215377991099    1.71309289740722   20.42265497577457
C        -3.68594807359578   -0.13901256797191   21.36982827040325
C        -4.83508479170923   -0.84495291883238   21.19676360634942
C        -5.75603046600077   -1.28612366811621   20.18458648124611
C        -5.30597658301586   -1.97090181646181   19.05404495962337
H        -4.24917645254051   -2.16124370771253   18.94377238393648
C        -6.20065035368069   -2.40621323098627   18.09594423595383
H        -5.84026218819446   -2.93876507200952   17.22716432351802
C        -7.55634105159156   -2.15696994069889   18.23907759891301
H        -8.25311723531414   -2.49209821250898   17.48486617743678
C        -8.01500677886995   -1.47784071386455   19.35677425968185
H        -9.07198589434893   -1.28299326944904   19.47348430450810
C        -7.12685538907576   -1.05495365656542   20.32661870131905
H        -7.48313467779257   -0.52553654670913   21.20033249025620
B        -4.28349994729906   -0.74127876246814   22.59638394135422
N        -4.30465219519203   -1.03490464192305   23.97778403768895
Si       -3.09270015510550   -0.19481637282254   24.95655582190300
C        -1.43657916671090   -1.12877141516357   24.83561933288544
H        -1.52571554773246   -2.15366375801833   25.18182237940076
H        -0.66266238223214   -0.64725370943128   25.42504112896024
H        -1.09555730907989   -1.15833783416106   23.80548259687191
C        -2.91716175759381    1.57726049202392   24.28242514302583
H        -2.72225529216370    1.55636390905323   23.21433567813773
H        -2.09919628901485    2.10393752216173   24.76299209460504
H        -3.82152930396456    2.15534824702067   24.44661044740718
C        -3.65580408444171   -0.05156288777420   26.77199532613457
H        -4.58434351779102    0.50189995752832   26.86118869571104
H        -2.90409038370733    0.47885879070580   27.34780233873506
H        -3.80032217630448   -1.01786224073865   27.24007112309577
Si       -5.37401338610077   -2.29111551212627   24.60085231649987
C        -6.73439298018225   -1.51125061848008   25.69255456720799
H        -6.35710345985974   -1.22316286807167   26.66738273534810
H        -7.54630138935199   -2.21396261361786   25.85352340049588
H        -7.15478850304557   -0.62484035553264   25.22726957385197
C        -4.35623417308036   -3.56557158428949   25.59012070006156
H        -3.63358904200441   -4.06563527825116   24.95258483979767
H        -5.00279257245316   -4.32843655257847   26.01268591823559
H        -3.81001152998672   -3.11019814193810   26.40842413972783
C        -6.19924512783638   -3.21148008348253   23.15402178108835
H        -6.90521733158800   -2.58222446731290   22.62452096233113
H        -6.73955535771598   -4.08393140095734   23.50846947952677
H        -5.46343590935108   -3.54884769146766   22.43180397141547

