59
CSD_code = ENATET | q = 0 | S = 0 | Stoichiometry = C18H32Cl2N4O2Zr | MND = 6
Zr        2.45189977321365    8.53698070985194    4.01823942606260
O        -1.33433775678774   13.74572681174298    2.59586230884681
O        -0.10610466692925   13.36992213322163    0.33055345534390
N         0.94119993264083    9.80563787796256    4.47193895645481
N         2.42756491654899    9.65604170767524    2.33201340844207
N         3.69201358274820    9.92734818292569    5.40100508210317
N         1.30252162555547    6.99762997137849    2.71749718507389
C         0.70570868057830   10.77713571774145    3.51642301615151
C         1.43992184325356   10.62357728965236    2.30244904163164
C         1.14939758414437   11.47178631753333    1.23045336716020
H         1.68095093825828   11.35152477389079    0.30117052809721
C         0.21966981818249   12.49549370762716    1.34379416644058
C        -0.45042169233086   12.68989024449542    2.55880583965920
C        -0.20146817557788   11.83496002093407    3.62295993494823
H        -0.74541148360501   11.97533770716277    4.54220050413752
C        -2.04876372289841   13.96968823493508    3.77848822581406
H        -2.68416107283677   13.11537787866414    4.04133672158424
H        -2.67992767069420   14.83566353610559    3.58182495977052
H        -1.38437883162317   14.19492865928286    4.62177872651817
C         0.56875642662687   13.24978724448819   -0.88985943795506
H         1.64989208434653   13.39399762582793   -0.77569106065844
H         0.16935574347409   14.03874343641559   -1.52624297829376
H         0.38510327754899   12.27873088125442   -1.36585381730338
C         0.60357730878915   10.10756306005611    5.84264897553027
H         0.58059287961937    9.16995663910610    6.41187409241371
H        -0.39142053827193   10.56833055376064    5.93337210441291
C         1.65290248823439   11.05137335797018    6.46046791664510
H         1.31852213115469   11.36682394686495    7.45192834562241
H         1.73271850192388   11.94280734662239    5.83335964831427
C         3.01299742390778   10.37300765613735    6.63617225469292
H         3.68234134199299   11.06707735287728    7.17434784790816
H         2.86579756123329    9.48432657263157    7.26101371548973
C         4.08015868689780   11.07669722984122    4.57319131727609
H         3.19317989257769   11.60904905247016    4.22213888270619
H         4.63223153575216   10.72089869812457    3.69590523936839
H         4.71799969361610   11.77068742037464    5.14279781288191
C         4.90863637550968    9.21655899528199    5.82071779879956
H         4.63653987567091    8.29309441950408    6.34071357814836
H         5.51293331982820    9.84091323561812    6.49619458864480
H         5.51674878548189    8.95780372602987    4.95106873671552
C         2.89692223125920    9.12668347727983    1.07372644605079
H         3.84990270694860    8.61058429078519    1.24449451721682
H         3.08327758456107    9.91852375180701    0.33318938902822
C         1.87488102161212    8.12908987864255    0.49588715903430
H         0.90470630636784    8.62694738487373    0.42265993656952
H         2.18056126702426    7.83869997303847   -0.51235397057571
C         1.78077111182093    6.84800201766571    1.32686042624415
H         1.11718151640462    6.13867523297205    0.80157778674612
H         2.78330647861947    6.40718360401992    1.37711665778384
C         1.40511747521628    5.67126662779494    3.34357562320088
H         0.95928941480544    5.68566183509242    4.34050904358613
H         2.45770867655916    5.38812860315630    3.43872994697442
H         0.88515588144539    4.91239184923529    2.73948518852635
C        -0.10256839464225    7.42427168675903    2.74484049263732
H        -0.20498076111781    8.42228404700819    2.31238142905465
H        -0.44767003012998    7.46703764652276    3.78413837200370
H        -0.73601875368824    6.71899231183789    2.18419729963350
Cl        2.13927934699722    7.18517486344710    5.98297525495680
Cl        4.42313850219724    7.31612098400371    3.38024858573218

