59
CSD_code = ENATAP | q = 0 | S = 0 | Stoichiometry = C18H32Cl2N4O2Ti | MND = 6
Ti        1.44738315470257    6.75088061668764    3.12682040593667
O         4.51629039094676   10.68744425209455   -0.98261830907119
O         5.82635047925944   11.10451265523101    1.21103037211904
N         1.57524493809210    7.56480873061961    1.43110455374751
N         2.97940274689558    7.79132453043832    3.47822197208599
N         2.37300702364096    4.96731856998907    2.04379422012167
N         0.38783746484843    8.38698910046930    4.31473038313451
C         2.63909533601889    8.41053351429915    1.26191012105341
C         3.39655928501520    8.59292616796130    2.44906008537392
C         4.45436750436949    9.50915193523812    2.44934049313776
H         5.02658662712911    9.67334156702141    3.34680036419784
C         4.80233433106216   10.19609861233578    1.29815221040440
C         4.08362606260822    9.97668048125997    0.10781277554586
C         3.01799342965387    9.09195200120758    0.09969153477158
H         2.46594351458233    8.94997825799965   -0.81407124184786
C         3.82914831480927   10.53326787059758   -2.19429355235997
H         3.87481654981247    9.50108227655161   -2.56090771628487
H         4.33549225542784   11.18619712178577   -2.90396727413518
H         2.78002973384092   10.83943062610513   -2.10993119235321
C         6.58470019566065   11.36613222339809    2.36032883040168
H         5.96995514429032   11.77709610710048    3.16974892622680
H         7.32366425579630   12.10847568087476    2.06171532895310
H         7.10213698491154   10.46943149218345    2.72073907864179
C         0.96161447796792    7.04122976848313    0.23480350580551
H         0.86348446713642    7.80961053299435   -0.54358342830271
H        -0.04388947242091    6.67955037311711    0.47201208271897
C         1.81296076741649    5.87457075019989   -0.28526091703601
H         2.82752421836209    6.23251544377312   -0.47769710490004
H         1.39907787424469    5.50748991918296   -1.22729315393738
C         1.81832215059166    4.70607219841902    0.69952713895880
H         0.78165218997414    4.38240155163578    0.83794778720853
H         2.38297770160162    3.87314953186769    0.24620212270208
C         2.17297830878451    3.72828031667756    2.80649569777904
H         2.67676884036808    3.79115491002515    3.77138499555527
H         2.57609078838129    2.86528821855110    2.25640696516785
H         1.10681479349548    3.57054061018856    2.98195072824269
C         3.81430366839429    5.22065184156624    1.96130004562784
H         4.01254087352615    6.13348067021181    1.39842038042559
H         4.32845440393771    4.37884105012107    1.47254051367136
H         4.21686981607979    5.34517556863358    2.97084568056164
C         3.43220238208739    8.14253590746314    4.80240881694985
H         4.48826337929493    8.44340815400780    4.80652274765269
H         3.33244769222177    7.27445827307659    5.46163831117082
C         2.55877292210130    9.28798312645766    5.33274173294286
H         2.93040691712075    9.61497872940886    6.30659600029555
H         2.62451768189151   10.13379232985690    4.64366992338750
C         1.10954079538915    8.84160648273660    5.52108355944722
H         1.10788419641020    8.00653732154455    6.22908917078473
H         0.54472849981082    9.67675014831275    5.97010667835845
C         0.17504283174201    9.50729254269830    3.39389920210530
H         1.12792804697144    9.88364625026524    3.01995762574392
H        -0.36180734279133   10.32616344191542    3.89705938848999
H        -0.41801339574760    9.16492257051300    2.54076439178684
C        -0.92636696217752    7.92961130604832    4.78462080576920
H        -0.80966738010258    7.02429882116781    5.38389857917956
H        -1.57445095950615    7.70265243498971    3.93777727104062
H        -1.40969590464891    8.70430326739505    5.39784817036842
Cl        1.59231694262071    5.61858055394650    5.11340648946216
Cl       -0.57726193390434    5.78282069109618    2.66419572501366

