60
CSD_code = ENAVOF | q = 0 | S = 0 | Stoichiometry = C28H20ClN5O5Ru | MND = 6
Ru        2.84179511067702    1.91085535414668    9.00367826873487
Cl        1.43240924194591    1.78259196946625    7.22196200937234
O         1.56409697035115    5.75562982673263    9.33407883512083
O         5.76562113105021    0.92924371463810    6.35576521540702
O         5.36195494639922    7.39060689027950    6.74868704245298
O         6.90515038241519    5.61836576424819    5.65608668707697
O         4.30168158040073    1.68607312484527   11.42997561493224
N         1.05876274593266    2.31320146744360   10.09131255045914
N         2.73765963069253    3.84804836712930    8.84918601970704
N         4.31127285607864    2.04067789363508    7.73443754240317
N         3.19678654683131   -0.14236384669872    8.57658041135890
N         3.75849867029060    1.84254365417351   10.40879026189963
C         0.22490675096672    1.41980604375543   10.65007225295110
H         0.58555452013624    0.40097514382138   10.69566212082341
C        -0.99966466157464    1.75355229544312   11.15007685814987
H        -1.63505634688678    1.00457024345307   11.59638646244348
C        -1.43214006472794    3.09228056678906   11.07490094532667
C        -2.68918926363403    3.49936499858999   11.55996648697680
H        -3.33833768850091    2.75739317306971   12.00133281903194
C        -3.07511362794938    4.80826316396994   11.46845804743587
H        -4.03979239709180    5.11944438322827   11.84099918968900
C        -2.21836493553743    5.75363455854846   10.88655189580074
H        -2.53666017638123    6.78280978343670   10.81700083502002
C        -0.98928034109116    5.38993967556540   10.40657855347273
H        -0.33311071887647    6.11901079708606    9.96149806162770
C        -0.55416369399770    4.04884982589583   10.48773220602567
C         0.70945022355512    3.59832272817753   10.00644511053899
C         1.70647852410618    4.53742287747904    9.36041683528020
C         3.78022153240303    4.33686482317225    8.07495868311036
C         4.01404548202679    5.69223346082208    7.83621500079106
H         3.35073496911212    6.40537027118136    8.29404333699030
C         5.06074383243965    6.09740171944763    7.02924264025198
C         5.90512736407123    5.12768355684954    6.43133496996247
C         5.67583852791004    3.78368213089804    6.65934865330187
H         6.29345117316110    3.02558281446130    6.20993152292654
C         4.62387567305991    3.36789283013791    7.47736630820137
C         4.82890626046521    0.95087834496250    7.14765413295144
C         4.09902006184261   -0.29458895481232    7.60520329873756
C         4.34035940965841   -1.57206714211362    7.02112870126659
C         5.26536823467672   -1.79274306999977    5.97705018560986
H         5.82632215370250   -0.95441920476194    5.59923765142248
C         5.44542275249109   -3.04697826229605    5.45958450102694
H         6.15619175792593   -3.19939674620069    4.66151167465846
C         4.71875502821853   -4.14158969584695    5.94961893429306
H         4.87891650755759   -5.12193172673762    5.52592932665993
C         3.81083823751313   -3.96486005993581    6.95708148214688
H         3.23951876579449   -4.79615505267760    7.34342111623823
C         3.60102878096271   -2.68772612149836    7.51033774763483
C         2.67430396760960   -2.46562383763612    8.54799507900003
H         2.10375927343264   -3.28901368237028    8.94848678155165
C         2.50750461061272   -1.20162426261759    9.03323991743334
H         1.80560431576367   -1.00026981577636    9.83132946284369
C         4.55018381963503    8.39772176207700    7.30357131753765
H         4.96425869167932    9.33812492757867    6.94324101827199
H         4.58089217695667    8.38136228661527    8.39754958836821
H         3.51152492563176    8.30535500442559    6.97157314343418
C         7.76802094938266    4.70228349867084    5.02567932578153
H         8.47375361027507    5.30801126495336    4.45938719313831
H         7.22418440404170    4.04193340585933    4.34322274724154
H         8.31251683440654    4.09529109481940    5.75580541769647

