182
CSD_code = ENAVAR | q = 1 | S = 0 | Stoichiometry = C63H89CoN14O14P(1+) | MND = 6
Co       12.39207780276360   18.47997493487875   18.97634765455924
P        16.01386066565800   14.88805898979395   11.44405692243926
N        10.69268304792493   18.10487189556406   18.36047829709387
N        11.80169263854872   20.20493494043509   19.54732134629242
N        14.21544992952154   18.70618100539079   19.46071946775317
N        12.74758506983951   16.71380902032396   18.50938831242615
C        11.88136698707734   17.94717656783389   20.64081686853295
N        11.40555268999526   17.69919742387641   21.65877784759126
C        10.51766646618745   16.83664750541157   17.64058798973480
C         8.98984592138977   16.54157493001420   17.83141559270199
C         8.40929313799752   17.97725638920298   17.92923268810280
H         7.54211244206717   17.96223779719023   18.58850400796294
C         9.56359399411536   18.71384424870521   18.56090256305937
C         9.40676832254974   19.92343931577481   19.29923785844640
C        10.50645517825770   20.62126036226527   19.73587776829463
C        10.51922288073629   21.90461060399030   20.57028667823811
C        11.93962258957008   22.42804270256250   20.25125413962821
H        12.36465252812078   22.98542813477931   21.08817395652782
C        12.65082318236256   21.13079245223244   20.01197945563406
C        13.97864547712104   20.94683101860021   20.31251788774735
H        14.50143023175669   21.76895682663327   20.77057231299292
C        14.69751350907118   19.79641840594907   20.05673677746210
C        16.14515005642066   19.62625974335377   20.44199903772967
C        16.56634598979956   18.53303463960158   19.44293910228220
H        17.30991551817106   17.87408112505831   19.88630329736151
C        15.24286896727365   17.83954726997903   19.18611034016298
C        15.12734259208377   16.56582348663352   18.68339804652235
C        13.83849365695616   16.01480417992056   18.40290694296536
C        13.52781353762991   14.55504112246920   18.07547741591204
C        12.04789434034554   14.64644805610279   17.60756505455135
H        12.04887745620842   14.83431878027391   16.53433608530691
C        11.54844476099812   15.90421880886535   18.32287771105453
H        11.18717341510148   15.63623248918164   19.32305658883659
C        10.89886660855670   17.00835785375692   16.16393688773011
H        10.48117909633852   17.92570410501692   15.76227854791692
H        10.53965879143660   16.17292591324603   15.57223772735806
H        11.97747887537275   17.06690488051364   16.05106725313987
C         8.34653289127047   15.68428022837107   16.74844696291125
H         8.27994131272963   16.20562034471306   15.80015507796135
H         7.34269338416661   15.41505406906811   17.06820409127199
H         8.90709890017157   14.76693872270094   16.58844856652585
C         8.74302791429106   15.89500269515861   19.21743003497330
H         9.01538448993583   14.83894389306701   19.18982204475664
H         9.34954793227923   16.40165375872130   19.96992675337992
C         7.28222102825475   15.95359622333123   19.65442816211539
C         7.97134327071858   18.69047806123210   16.63890519616390
H         8.20359778147625   19.75254251815750   16.72463511373164
H         8.51891730569682   18.32851353595459   15.77198852766784
C         6.47674219351681   18.56306712506660   16.35889380464874
H         6.19093616225260   17.52185063224086   16.20828036135453
H         5.89787841031561   18.94868925509742   17.20192952146445
C         6.10408091984092   19.37619210497597   15.12733223969962
C         7.99689157172847   20.38187121828966   19.55628228233777
H         7.92997281349498   21.00062148034558   20.43763039913109
H         7.34209374016179   19.53082343156288   19.71774210534896
H         7.60632642160297   20.94579660634743   18.70949841093381
C         9.44832557057261   22.96675688845080   20.33643205392410
H         9.84344733314474   23.93581089492690   20.63458285741628
H         8.57282559812338   22.79028587489448   20.95290523535590
H         9.14953393354502   23.01875199523304   19.29388227675764
C        10.53504725278612   21.47933692565739   22.06437717325000
H        11.38846807385726   20.82401089167065   22.24565489265848
H        10.64207059086697   22.38384562114852   22.66635759746381
C         9.25806933372058   20.79252446983054   22.52290358092670
C        12.01084887789072   23.30448629333287   18.98665270154167
H        11.51337074928879   22.78728526834702   18.16370091263095
H        11.46915981363886   24.23014810106472   19.18028467947543
C        13.45349120710108   23.65492350877191   18.57573081710586
H        13.48818165785515   24.68330013674382   18.21239730850841
H        14.12365837707979   23.57691549276839   19.42982214653847
C        13.96637969641621   22.75327919208989   17.46386293515656
C        16.17250954550450   19.02962706684800   21.86097120911117
H        15.60494007302321   18.10209602647992   21.90001092847679
H        15.74074289485589   19.72645597113668   22.57574039801062
H        17.19885344084452   18.82238118155942   22.15417877380486
C        16.95284065677042   20.91679384318281   20.42776990306821
H        18.00140326246256   20.69577028846069   20.60870820538980
H        16.62180437200383   21.57358404382318   21.22911179978987
H        16.83810777383516   21.44008997915442   19.48285154799443
C        17.08840823855490   19.04007802785962   18.08073271067288
H        16.92995473282875   18.25360294286739   17.34039363502315
H        16.49557900049335   19.90504561676972   17.77497630569366
C        18.57409624448860   19.40404464625897   18.02767153130991
H        18.79905759160563   19.74514933025888   17.01503138745479
H        18.80599654801292   20.22472190797452   18.70638516980885
C        19.51629661625205   18.26019960318100   18.36682457131844
C        16.37054619240455   15.75717083167441   18.42744346060844
H        17.26320941573957   16.25811822583660   18.77971349947569
H        16.50885081558043   15.58022007684663   17.36280733855375
H        16.32474778007056   14.79608100153103   18.93235566805559
C        13.67390274499180   13.77461438846256   19.39244991509455
H        13.53126196334290   12.70953913774063   19.22674134618110
H        12.95963391025352   14.12548216496205   20.13425480385221
H        14.66826647566133   13.91330443754329   19.80562659669953
C        14.38149673523321   13.88557011365262   16.99010125075365
H        15.38893271122243   13.70442580911333   17.35570576066796
H        13.93976838826275   12.90776148741593   16.79386475752893
C        14.45735572046290   14.66014259506246   15.67011508933191
H        13.46740818019452   14.77790751831470   15.23243414890668
H        14.89873084639685   15.64506666951594   15.81989966808246
C        15.32137364735395   13.86434826865053   14.70589202972062
C        11.19931785617087   13.39528253806556   17.82199815287045
H        11.35916161990536   12.94785732976401   18.80129896599576
H        10.14381208351365   13.66892269211432   17.75518149285789
C        11.42290829959822   12.35737380317750   16.72947530738380
C        13.93987517718549   18.76654330772651   16.42002908192531
H        14.67296989604775   18.08529527491860   16.79736358410456
C        11.07652955913827   20.79652063192280   16.33513045875088
H        10.52444841224118   20.79348880918563   17.25870914309827
C        10.60683312613754   21.51694465474221   15.25341880160135
C        11.30894774607970   21.51544005287523   14.02796216692314
C        12.48862854304624   20.80315965036852   13.89827847085390
H        13.03035271161689   20.80192414962879   12.96471486316601
C        12.94414776699442   20.07240013150796   14.98630337805233
C        12.24521055289074   20.05456182583428   16.21011345868022
C         9.32069726546322   22.27140451056627   15.38369691820326
H         9.03879934713365   22.37096522747808   16.42978260859594
H         8.52291245631174   21.73521357651168   14.86786959899878
H         9.39219892368741   23.26473074243491   14.94741094734234
C        10.76585189292957   22.27267855498600   12.85719456082126
H        11.37666265884069   22.10818314151414   11.97390038852335
H        10.73928742197398   23.34259627910718   13.06212121624776
H         9.74754860685926   21.95260709968560   12.64447485414165
C        15.28199975472299   11.80885123168856   13.32666558438157
H        14.47493089008590   11.24543849015658   12.85420666526917
H        15.90116146883776   11.12154513499732   13.91589017301045
C        16.16685348059675   12.42484613522750   12.23711548629634
H        17.04174480262549   12.89890986366902   12.68858472969004
C        16.60127937034967   11.38580406997973   11.21638453163103
H        17.23748262526308   11.85714822431460   10.47224325957038
H        15.73440386784692   10.95826788160633   10.71791291879039
H        17.15934093319171   10.59380237644212   11.70698859086370
C        14.96929268809295   18.83247530110785   14.17085132470227
H        15.41731296197680   19.71695491348164   13.68825619254111
C        14.30359135528446   17.92932786078247   13.09931911429409
H        13.87614205641445   18.52317399819664   12.28196724117329
C        15.49603188541866   17.07632229475589   12.62874913207033
H        15.89570848649548   17.45614986112421   11.68496143147636
C        16.55117119425826   17.23538409869267   13.74362934872593
H        16.79851684715953   16.26174138459260   14.17732516356978
C        17.83114362853677   17.87500997352944   13.20600193509071
H        18.48721992431609   18.11066810122895   14.05352764034855
H        18.31536119197358   17.13915891167783   12.55771157000308
N         7.09031938687042   16.56087372087853   20.84731098586888
H         6.16165510445768   16.56510090960089   21.23893551545101
H         7.85417286855340   16.85966577522848   21.42771156459086
N         4.83550155326191   19.19075011945494   14.70935123468463
H         4.50217118128814   19.70566818053505   13.91109385522171
H         4.20113029494562   18.57028323086290   15.17936887355967
N         9.34330474020441   19.45881601754346   22.67075060887907
H         8.53664509579482   18.98436158324588   23.04312939868744
H        10.17591750303099   18.91546935273118   22.46993527567138
N        13.47362333648843   23.08087370836738   16.25029085740730
H        13.70383763223231   22.51642988925973   15.44879486982222
H        12.78923326756575   23.80629540167140   16.13483372911610
N        20.79378056599572   18.48109877369092   17.98934979815118
H        21.48766846407597   17.78162639173644   18.19696376070793
H        21.08396406397623   19.31996023891528   17.52040027618843
N        14.67722687969629   12.80351281517433   14.18741689964776
H        13.71053736974514   12.66212583894663   14.44876108168543
N        11.05361020287845   11.10874351440476   17.07178442468159
H        11.10427824928047   10.37708808445398   16.38109963872990
H        10.62255038326140   10.89572537713663   17.95373997297582
N        14.02825847402385   19.24769211303583   15.16893069012779
N        12.90576818351405   19.21886385173752   17.08468067729200
O         6.36050315500433   15.51112490253758   19.00529904632915
O         6.86876897023997   20.13415701463578   14.56948911614635
O         8.22974636128305   21.40277770285663   22.74030286260871
O        14.75332327677377   21.84352663681680   17.61906469051827
O        19.19250108884298   17.24334706005895   18.94282638577926
O        16.48206222925360   14.14942732211908   14.47527203710009
O        11.87795404631626   12.61611226307334   15.63228331478300
O        15.06731181228647   15.74193782872939   12.46128274784152
O        15.40270438252727   13.43831487795615   11.57237211039223
O        15.48440572344322   15.35932547904059   10.01841923134011
O        17.44091286481323   15.09045040305785   11.62151051315777
O        15.95200553829899   18.03059737875627   14.76312632778884
O        13.30294947745753   17.14960744227701   13.68926235554073
H        13.46019489937226   16.23814998604807   13.39763339536541
O        17.50453239097882   19.05648252500928   12.49429175002736
H        18.28183503205621   19.33741601630881   11.99983007119286
H        14.62704122902734   14.99940759371676    9.79031293466657

