56
CSD_code = ENAWOG | q = 0 | S = 0 | Stoichiometry = C28H24O2PRe | MND = 8
Re        3.15440506562906    6.59171509653115    0.84356348445469
P         2.93785775835969    5.21518089732406    3.93370719928005
C         1.17393114476195    5.59106039165293    3.98025388777064
O         5.19654247459675    4.47023625801356   -0.06811725976016
C         1.82872255489721    5.22360666473378    1.00616469046395
C         4.41843804394361    5.26074655704645    0.28316361205578
O         0.96212023260533    4.44453768984842    1.05546520347520
C         0.21487863271347    4.59400764866851    4.10744081046190
H         0.51346438254531    3.55821255061720    4.17187978892510
C         5.26048202543055    4.60807195804294    7.19373248600864
H         6.25664214317930    4.23787836071829    7.38403196868054
C        -0.54326287982790    7.26586194965321    3.95218640234528
H        -0.84380758253885    8.30204847737987    3.89458369420453
C        -1.50284555577451    6.27081379305863    4.05966310256784
H        -2.54989696316801    6.53427622355507    4.07809984070596
C        -1.12409191257631    4.94073201755373    4.14177638018313
H        -1.87599992832586    4.17066309328132    4.22658652627785
C         0.79601755267713    6.92810933163268    3.91256770220803
H         1.56272650403333    7.68558531303629    3.82061848414198
C         2.70210195106660    5.58165591947470    6.71148176438902
H         1.70916043873855    5.96156179058042    6.51550714800005
C         4.77452008063632    4.64988033992549    5.90095697442263
H         5.38122415132332    4.32160146210524    5.06800419727487
C         5.71794681800462    8.06327145347528    3.04882302769590
C         3.19470401923823    5.53191238758185    8.00410530012433
H         2.58296532622900    5.87552945886064    8.82486698371260
C         3.48807758404714    5.12814089650481    5.65898641815626
C         6.44160594496169    7.72703848056122    1.90533696138271
H         6.26309639197635    6.77039825351971    1.43403194206782
C         4.46949537740891    5.04601656066398    8.24569662343484
H         4.84997309822563    5.01183283835906    9.25538797119121
C         3.84589929074459    6.40110056077766    2.92821398963550
C         3.21530348124488    3.55171915895437    3.24564901797129
H         2.34573958601468    3.24682939787136    2.66768996207488
H         3.40908215295929    2.84029782236020    4.04731298977519
H         4.06742121179052    3.62248094183773    2.56684343669897
C         6.90908375208431   10.15814448569938    3.14965215860088
H         7.08835118958771   11.10754942900238    3.63414578654351
C         7.38453190656782    8.59831045102013    1.39305811505002
H         7.94136745259639    8.32427201998185    0.50832217005308
C         4.73931210817936    7.14223504651684    3.62067684055529
H         4.78128369309982    7.08929477444440    4.70802267294480
C         5.98081581340114    9.28096718961800    3.67700427744722
H         5.43416202040630    9.54541721828638    4.57281076730778
C         7.61304878536507    9.82041628889967    2.00496046458092
H         8.34091034744796   10.50571425440202    1.59540881668682
C         3.94361063881765    8.69601551742585    0.04483670653142
H         4.96573056643651    9.02976475408442   -0.05649574717646
C         3.09935066643514    8.95853830610142    1.14372598952670
H         3.37815026360058    9.51262653984174    2.03096436309538
C         3.16021549756535    8.10539571982408   -0.97647397625695
H         3.48778400343642    7.90109301025008   -1.98630954871624
C         1.82749792325201    8.00615614457680   -0.50218015967312
H         0.96726858697239    7.71042072291064   -1.08640449020408
C         1.79464371761364    8.52113291257769    0.81662263201257
H         0.89834046929090    8.71202321863326    1.39138944868553

