51
CSD_code = ENAWIA | q = 0 | S = 0 | Stoichiometry = C16H26I2N6Pt | MND = 4
Pt       -6.53077095501440   -4.52302201539416   -2.93565470120038
I        -5.66055535564579   -6.42562235905591   -4.51356557728425
I        -8.72817438618846   -5.74969118359575   -2.18749437885857
N        -7.33888295317110   -1.69636257436685   -2.18535296885560
N        -7.20152927513198   -1.66333212772842   -0.00030070081123
N        -6.92582389186110   -2.89197731918332   -0.47025263053114
N        -5.53022826343719   -2.22873701703968   -4.35049230808266
N        -3.35602930452519   -2.09551268960212   -4.22720665829749
N        -3.79401541143311   -3.19349917004377   -3.57934213170799
C        -7.00725802948051   -2.96039918260170   -1.79763085195302
C        -7.45505553049020   -0.95337243556162   -1.04544528172811
H        -7.71385055003500    0.08499691433690   -1.02834200675080
C        -5.11442543463524   -3.31040128130357   -3.63506395940908
C        -4.41799261412378   -1.52243230063158   -4.68863182164908
H        -4.41144086192642   -0.61896360462858   -5.26126139132083
C        -7.60797265528279   -1.18163528455715   -3.51505521001788
H        -7.21581373049251   -0.15426561019230   -3.53635186323371
C        -6.93145158506152   -1.99681955005621   -4.63016329551974
H        -7.40280832649034   -2.99951071830368   -4.66153582051735
C        -7.16668718060304   -1.31207359708924   -5.97185648726713
H        -6.76736189353161   -0.29465810344403   -5.95131608778308
H        -6.65061929236697   -1.86807058768577   -6.75668835424478
C        -8.66683867251454   -1.26964354674104   -6.25480312760525
H        -9.04949349644455   -2.28903431850810   -6.32915595675821
H        -8.84417234054871   -0.77583287592440   -7.21044534846962
C        -9.40243038859710   -0.52777015352668   -5.14232260869421
H       -10.47569074342198   -0.54929690061168   -5.33108764397418
H        -9.08632826072400    0.51851472569566   -5.12899534905195
C        -9.11778552816307   -1.16011962585628   -3.78332394277699
H        -9.62106957937442   -0.59919670031633   -2.99309488842143
H        -9.49583264346447   -2.18503252442911   -3.75844358378333
C        -6.55868394224393   -3.95990715637965    0.43908232832294
H        -6.35978759325959   -4.84356544013322   -0.18743207195596
C        -7.71782492515542   -4.23782123029926    1.38689267734822
H        -8.59479176985698   -4.55771508115003    0.82938100730762
H        -7.96042739828960   -3.33916516346516    1.94873869211801
H        -7.44426735242340   -5.02845268948680    2.07885144751083
C        -5.29143682906657   -3.56077083934946    1.18679428868405
H        -4.47653459150981   -3.37246867931002    0.48996089115437
H        -4.99306521175541   -4.36182145672444    1.85620004854216
H        -5.47326194515717   -2.66086907532930    1.76950864301498
C        -2.86235228527975   -4.10152446399743   -2.94246248146203
H        -3.47549441961948   -4.86781894189602   -2.45007768917698
C        -1.98066334383269   -4.74591828685883   -4.00532077440852
H        -2.58756320092061   -5.31680665858220   -4.70396926311567
H        -1.27277060230374   -5.42105221127467   -3.53455821264930
H        -1.43508865499536   -3.97884824796767   -4.54950933955439
C        -2.04345282992870   -3.33356095577034   -1.91127803915925
H        -2.69094095292443   -2.86335297555493   -1.17279227838895
H        -1.46049263572233   -2.56053859162795   -2.40598212557409
H        -1.36891038157367   -4.01194813689541   -1.39785081199879

