21
CSD_code = ENAXNI | q = 0 | S = 0 | Stoichiometry = C4H8N4NiO4 | MND = 4
Ni        2.30626719466800    2.29376040993714    1.62113483672274
N         2.57367375729628   -0.33389552320443    1.61976065847579
N         3.87540861128704    1.49805462630351    1.61952926646321
N         0.74613980382668    4.41403416725546    1.61974780661516
N         2.93362420860274    4.06490100947914    1.61992782702542
O         1.65784293189814    0.56263831751302    1.61943824883057
O         5.00919009856907    2.05841936722050    1.61948609911460
O         0.64957358582408    3.07228270774774    1.61960006711809
O         4.22322676726148    4.57832981639627    1.61964841339553
C         3.79874764305109    0.13322339833327    1.61970386407925
C         5.01807369126931   -0.71842446588972    1.61978274131157
C         1.96060028405255    4.95271494717978    1.61980175217672
C         2.18166874021201    6.42389964711617    1.61975488910403
H         4.80831512437947    3.77141128330036    1.61999850757670
H        -0.12681087637083    4.92437753997671    1.61965745734493
H         4.72794284776492   -1.76291083741340    1.61985307682987
H         5.62247640071522   -0.49998901520866    0.74040231028999
H         1.23865285109384    6.96143102500655    1.61974196183354
H         2.76590061701741    6.70044670797935    0.74303610468860
H         2.76589368149214    6.70047176228359    2.49646557256508
H         5.62249203608935   -0.49987689131234    2.49912853843863

