45
CSD_code = ENAXOG | q = 0 | S = 0 | Stoichiometry = C20H10F6N6O2Ru | MND = 6
Ru        5.11892301828320   -1.19084235886872   10.41470881533976
O         3.93598552227377   -3.73361100612231   11.48660896587245
O         5.91742210736625   -2.52603730835444    7.84701528253688
N         6.11798684959084    0.56613121585856    9.84018926298531
N         6.88842096313609   -1.43727169994425   11.34522607487521
N         7.35821827183382   -2.34578855122317   12.15166374525222
N         4.40160002808618   -0.12209729631805   12.07439137864702
N         3.39899419700484   -0.44747374038791    9.67471853175636
N         2.83341347419286   -0.49333507111464    8.50232676827335
C         4.36237680980010   -2.76755921254792   11.06691314902672
C         5.63544381045847   -2.03276498203265    8.83100029186720
C         5.69015639215179    1.50922678936062    9.00203448470221
H         4.73478693821809    1.34279602313817    8.52052321746838
C         6.41774320292674    2.65062374356820    8.72256566145805
H         6.02487007305022    3.38149948224627    8.03528551741666
C         7.65358087960136    2.82762976243156    9.33453342709636
H         8.24305251518941    3.70980126018875    9.13807392157335
C         8.11766353393397    1.84782575082344   10.18634009107097
H         9.07637881335752    1.93044908801496   10.67178830864099
C         7.33184400987636    0.71608559176077   10.41897291300463
C         7.73362531804205   -0.37647519566605   11.26223581071772
C         8.83582314527360   -0.64545344073637   12.07800027554460
H         9.70358866182873   -0.04814388152791   12.26341810282040
C         8.53979217931190   -1.89825895549918   12.61058694221206
C         9.34305897696172   -2.68484114703348   13.58238693817981
C         4.92808073208071   -0.06802556001091   13.29698810946569
H         5.80287113973729   -0.67832211903862   13.48299643905972
C         4.39413423059201    0.70592732053739   14.31002812404546
H         4.85963430640698    0.71208314654636   15.28169195154495
C         3.25482040841318    1.45973643269427   14.05175708276650
H         2.81702711881518    2.07598224198409   14.82172581857062
C         2.68679050734125    1.39378832172992   12.79715180836103
H         1.79380358514377    1.94564704480523   12.55297371345188
C         3.27622722758555    0.58547850048102   11.82167981770430
C         2.74878682683007    0.41936773674926   10.49486911731093
C         1.67487556188420    0.95711944641758    9.78063667487458
H         0.93915126816089    1.66690641419851   10.09546268285954
C         1.78167990387272    0.34303064968588    8.53463569620133
C         0.92654272426492    0.56322180151797    7.33956215408712
F         8.69003275705387   -2.89208591877852   14.74291257062146
F         9.70055354760463   -3.89455803985259   13.12957282607473
F        10.48349447469563   -2.04795919129365   13.90823597084188
F         0.48735860256553   -0.56742013108191    6.77451764337644
F        -0.16397361340375    1.29273855814141    7.63965392392024
F         1.57015899860815    1.24702848455324    6.36903999652222

