43
CSD_code = ENEDAC | q = 0 | S = 0 | Stoichiometry = C22H18AsAuO | MND = 2
Au        1.52519779635768    5.21208001739847    2.77273629279531
As        0.18379803207931    3.26458785916138    3.17503725251978
O         2.63056228842166    7.89234493578100    3.32110571576253
C         2.64567952531015    6.85379038443487    2.42836752983694
C         3.49230513130017    7.20446071178445    1.40940504991597
H         3.72118425672317    6.60269641946098    0.54983575682687
C         4.00969421428100    8.49315421091351    1.68744060082099
H         4.69903727718565    9.06248747745741    1.09515338201378
C         3.44719315622571    8.86022939468516    2.86686598105102
H         3.54038875359514    9.74675491039486    3.46478432352890
C         1.17205519105339    1.63449457202962    3.50145916959353
C         0.82280378267669    0.69825651265930    4.46654493461897
H        -0.05460596010951    0.86448576178704    5.08430348364039
C         1.59328052305173   -0.43905355272020    4.63881040654337
H         1.31796290027795   -1.16683953690118    5.38870901289897
C         2.71485778075641   -0.64530297285559    3.85219756555301
H         3.31300556516076   -1.53388462209947    3.98968377900722
C         3.07489598593572    0.28940301962489    2.89408833345432
H         3.95437295380473    0.13203965038561    2.28694558516492
C         2.30838652562094    1.42789051474932    2.72338601988595
H         2.58471764094968    2.18056967788953    1.98724557316024
C        -1.03136783995298    3.33547185427569    4.67680842525214
C        -0.48682601931143    3.72329856436123    5.89917356630025
H         0.57715895134764    3.94522206283166    5.95453269990208
C        -1.28927008029333    3.82883455856845    7.01997933641349
H        -0.86202219545622    4.12670087664038    7.96636063232921
C        -2.64563539391121    3.55877987695594    6.92304934711810
H        -3.27533999234024    3.64314047765149    7.79621445763126
C        -3.19614379868775    3.18857493686979    5.70718261240013
H        -4.25476658272217    2.98464816542210    5.63305362056839
C        -2.39328150969772    3.07921232755590    4.58426757360105
H        -2.82322643501644    2.79460803579926    3.62852859782875
C        -0.96947004880965    2.77853719243837    1.70173081895395
C        -1.13529584088676    1.47593005364621    1.24896042661607
H        -0.60472651476601    0.66490900519640    1.73881597111521
C        -1.97046778942500    1.21707310430213    0.17541024292963
H        -2.09953084565180    0.20245939649420   -0.17338223116991
C        -2.63968043270520    2.25543121672789   -0.45156435838822
H        -3.29042677153083    2.04928410308342   -1.28831844560981
C        -2.47009233307361    3.55916845237185   -0.01236006423664
H        -2.98442474994137    4.36963784095913   -0.50771037533119
C        -1.63321786493022    3.81968445003568    1.05738889146185
H        -1.47531923289622    4.83874810179286    1.40567250572133

