37
CSD_code = ENEFAE | q = -1 | S = 0 | Stoichiometry = C16H18AuS2(1-) | MND = 2
Au        8.69757998884321    8.02085002954399    0.00016216175842
S         9.53196280069006    6.13783786914930    1.10780413004721
C        11.18698039589636    6.50081524169088    1.49154064717940
C        11.93367265866381    5.53889969329894    2.17608724920986
C        13.25392210899687    5.76695366323735    2.51090497185323
C        13.84691654382418    6.97459979902740    2.15884193886537
C        13.12400764031988    7.94570096982352    1.47712839170017
C        11.80277403693150    7.70286735842471    1.14921826313878
C        14.05126092840248    4.73023143993157    3.25239714586982
C        13.77724787053640    9.24653834093064    1.10423501661972
H        11.45297939973282    4.60776210894562    2.43942491899397
H        14.88176308985070    7.16003759907966    2.41812570321346
H        11.22687690438159    8.45146388412678    0.61772073818786
H        13.46357053109716    3.82795353082298    3.40519892731506
H        14.95205545267838    4.46952366910038    2.69594803469760
H        14.35965060831239    5.11186723020215    4.22663728678255
H        14.10487610275307    9.77865517019229    1.99825572379638
H        14.65440968967785    9.06898603224229    0.48095123003984
H        13.08511292065254    9.88219515155078    0.55715314429679
S         7.86333234306848    9.90507713632881   -1.10736990835175
C         6.20844725925221    9.54197749176875   -1.49149250332901
C         5.46179920765867   10.50397520471190   -2.17595051544024
C         4.14156466046211   10.27595890065007   -2.51085420464176
C         3.54853025481207    9.06828592133055   -2.15896324186270
C         4.27138373937545    8.09710041946629   -1.47730467151755
C         5.59259722827023    8.33990139461515   -1.14930124744797
H         6.16848038377192    7.59126183924981   -0.61784694777314
C         3.61811492330627    6.79623752705301   -1.10455564341911
H         3.28989267213060    6.26450615530584   -1.99858525259828
H         2.74133089686197    6.97370422081181   -0.48071128658542
H         4.31044228520154    6.16026760339653   -0.55808363614734
H         2.51368805748189    8.88291093057622   -2.41831811128143
C         3.34424126612818   11.31279933803977   -3.25220088022486
H         3.93212729980772   12.21488932487014   -3.40534574955176
H         2.44372214344896   11.57385122602156   -2.69546126965265
H         3.03539551318954   10.93109754308709   -4.22626734010038
H         5.94249019353086   11.43515904139089   -2.43912321363908

