67
CSD_code = ENEGAF | q = 0 | S = 0 | Stoichiometry = C30H33ClNPPd | MND = 4
Pd        5.58487714879436   -0.97550801413975    3.83926037785921
Cl        4.58980178217383   -1.66276234815369    1.93982343687285
P         6.52332831797213   -1.00205007644942    5.89502141946568
N         3.78407792846198   -1.37798689403158    5.16198045829188
C         7.19476978625707   -0.45334268512702    2.67509506495599
H         7.31277781617066   -1.16167021593495    1.85180113628378
H         8.13575174349618   -0.39852681742955    3.23500005476579
H         6.95771409237709    0.53058820181187    2.24740072690286
C         4.02754369706141   -1.97637121097236    6.32983871038633
C         3.02509496335748   -2.18459598430262    7.26638555063795
H         3.24446490017799   -2.68680723995095    8.19678381976761
C         1.74490215348691   -1.73110707782558    6.98757987112430
H         0.94843008530549   -1.87007146263083    7.70386401376790
C         1.51226288767996   -1.08476259921301    5.78958354822382
H         0.53952603201584   -0.68405560891936    5.54979224139233
C         2.56154976339706   -0.93054674502769    4.88220814234794
C         5.45070961391850   -2.36495165968279    6.57712496549418
H         5.69477544854377   -3.24856247709039    5.97415007306095
H         5.65464144225553   -2.59691902275729    7.62597125986448
C         2.33908001011942   -0.22554993996809    3.60063717235577
C         2.92318595173681    1.02497927497209    3.37904513767431
C         2.66808770338439    1.68567689852957    2.18592308811283
H         3.12527004827291    2.65017643920140    2.01286906566905
C         1.85912085234640    1.12927535875010    1.20890306001104
C         1.30083471062071   -0.11975635156982    1.44165385410514
H         0.69125302960756   -0.57676084129091    0.67509907496066
C         1.52872980523751   -0.80890524407429    2.61991299577151
C         1.62183010846207    1.83727880999635   -0.08960191766024
H         1.79315086718276    2.90657648075209    0.01091600333701
H         0.60590453908554    1.67142465328916   -0.44235265342249
H         2.30681503248841    1.45218925325081   -0.84515873560698
C         1.00531558366706   -2.20373295176307    2.78575326946968
H         0.51231818029011   -2.34918805393483    3.74520635359151
H         1.84426216168989   -2.89799752556036    2.72695273163799
H         0.30557663555604   -2.44669612282147    1.99022640332155
C         3.83543930256677    1.65887585882793    4.39367343112767
H         3.88107630995989    2.73603620145115    4.24747486848283
H         4.85761996885239    1.25243302069917    4.25653684222673
H         3.51529358172926    1.45556251190459    5.41656667432347
C         8.16974744500292   -1.70101904712668    6.25733993361692
C         8.93210513371421   -1.15980143846449    7.29122029295360
H         8.52460085977268   -0.35306234749437    7.88443656982246
C        10.19535162156139   -1.64160738500023    7.57199375383767
H        10.77029299559180   -1.21189195450325    8.37877411725033
C        10.71707297238893   -2.67346553100418    6.80982634065559
H        11.70667179138926   -3.05395171899717    7.01481282942400
C         9.96548480071187   -3.21699323809725    5.78562453253221
H        10.37464915720117   -4.02479094550182    5.19543564771044
C         8.68736871723302   -2.75300457012862    5.48870316128514
C         7.92856458720380   -3.43021608131928    4.38691161481353
H         7.10854879555707   -2.81225747627182    3.98387702155154
H         7.51028564879765   -4.37057912677925    4.75141236040456
H         8.60382638392505   -3.67262670863529    3.56789958867367
C         6.32337403984936    0.36593596682270    7.08210897962135
C         5.49810447133077    0.27435940142226    8.19926117401935
H         5.00826131146291   -0.65521839678566    8.44287692231763
C         5.29153395019731    1.36908827966757    9.01930156787107
H         4.65193115858940    1.27753265047184    9.88482736286058
C         5.90278913130137    2.57511915733180    8.72731479390390
H         5.74414883747443    3.43296800051227    9.36356506542948
C         6.71608246993636    2.67976335676242    7.61219973242126
H         7.18842743141160    3.62414599675449    7.38215754364603
C         6.93352332145300    1.59381806878438    6.77754005906688
C         7.80419880434573    1.72329553249641    5.57082934575429
H         8.67689799826803    1.07410373613323    5.65467960440832
H         8.14448778895451    2.74780734954426    5.44217025629636
H         7.25270438962521    1.41826067659799    4.67689823690727

