47
CSD_code = ENEJUC | q = 0 | S = 0 | Stoichiometry = C24H15AuF5PS | MND = 2
Au        0.90081178293402   -1.06025385605807   15.00044525045561
S        -0.10243219567244    1.03015369645931   14.69574823613482
P         1.87068284926472   -3.05908334347126   15.45244455804125
F         0.52983632768827   -0.84440702787531   12.28231704443512
F         0.15919043841082   -0.25644489547503    9.71922902888253
F        -0.88394879908236    2.16794095454217    8.95485036924830
F        -1.54307248270706    3.99714427833793   10.88511157278486
F        -1.16556723772677    3.42938106766963   13.48633209001489
C        -0.29939153481871    1.27996528883395   13.00327365515573
C         0.01705550815601    0.37393957228765   11.98358665438807
C        -0.17175613592684    0.66070052776383   10.64094321417861
C        -0.69882210872971    1.88431776237621   10.25170880550919
C        -1.03173043546609    2.81121420439530   11.23811269453291
C        -0.83434404184948    2.51046710052852   12.57357322642564
C         2.94177374515353   -3.72240823724047   14.15013995274816
C         2.49506871840926   -3.58467464153648   12.83788482220600
C         3.26059278171482   -4.07152128665401   11.79528117721767
C         4.47418952905294   -4.68836466599523   12.05792149810729
C         4.92193872163822   -4.82000601116120   13.36276092706346
C         4.16095627288540   -4.33861872848244   14.41324776477691
C         2.93428510575996   -3.02278812538457   16.91956451554265
C         3.80217293220893   -1.93854254649758   17.02965669104161
C         4.65188755378413   -1.84088190408997   18.11430857406711
C         4.62930315534337   -2.81749798463228   19.09858628196393
C         3.75893706677253   -3.89032390923733   18.99623893959149
C         2.90950199890110   -3.99909409713459   17.90887806565407
C         0.69193341055366   -4.39240135648531   15.79365254535898
C        -0.38845118925596   -4.07375064380835   16.61382253061709
C        -1.32645984817435   -5.03864697724809   16.92597761179026
C        -1.19693213409357   -6.31954952626854   16.41047734260400
C        -0.13023021517192   -6.63411515805320   15.58450956112680
C         0.81765232032131   -5.67503396140628   15.27238996727346
H         1.55259376732688   -3.09038003248752   12.64681625114296
H         2.91471537108477   -3.96268278277947   10.77859727509941
H         5.07531490469872   -5.06332301378384   11.24321119897090
H         5.86917915931991   -5.29825660064906   13.56417410111119
H         4.50997701343849   -4.43807714587001   15.43191732644744
H         3.79798357507142   -1.17854784734792   16.25802088494981
H         5.32639372702175   -1.00206432621014   18.19770876257589
H         5.28866311729777   -2.73882095499824   19.94979728197722
H         3.74045934211557   -4.64695564485894   19.76660750982797
H         2.22968110225757   -4.83593719658441   17.82769667091098
H        -0.48070512902527   -3.06528653262655   16.99822416229699
H        -2.16154284893468   -4.79280246382269   17.56457986865161
H        -1.93277241861945   -7.07253249055537   16.64947567763748
H        -0.03528917926400   -7.63094172848337   15.18011294648550
H         1.65001663592545   -5.91810680793005   14.62668491297381

