53
CSD_code = ENEQET | q = 1 | S = 0 | Stoichiometry = C28H20CuN4(1+) | MND = 4
Cu       -0.92145687723723    3.17767401491997    3.46706122622381
N        -0.15931401834399    2.04230053522474    4.82073218749253
N         0.35362362507597    4.31567689365237    2.58442174173949
C        -0.12851442059183    1.28009793678808    5.68310207815508
C        -0.04611641331189    0.36086264149161    6.73675528416734
C        -0.29867102109386    0.78267442235758    8.04685976528432
H        -0.55624599167074    1.81410288108328    8.23514742701957
C        -0.21107711763921   -0.12708129902251    9.08151169088687
H        -0.40401673202164    0.19321403254267   10.09373590306264
C         0.12521902027856   -1.44824970948229    8.82342169062243
H         0.19299586364865   -2.15347086049026    9.63725446788244
C         0.37643904634101   -1.86679213702104    7.52467464612311
H         0.63930988128081   -2.89507579965953    7.33006646882750
C         0.29335184148632   -0.97139049265998    6.47700243147855
H         0.48935449694251   -1.28461501676270    5.46262423361170
C         0.76796535154830    5.15428488590544    1.91321063050002
C         1.31443228525195    6.16248059324349    1.10894685931041
C         1.67323134891690    5.88114173230038   -0.21392637867704
H         1.52405480488535    4.88708941199890   -0.60780754668837
C         2.21779715997272    6.87980536735994   -0.99632385859754
H         2.49757379316194    6.66775492597270   -2.01667984850320
C         2.40765770583800    8.15120881409848   -0.47419685129929
H         2.83544233254048    8.92627999819247   -1.09104199456965
C         2.05227247346868    8.43060955422883    0.83759824858826
H         2.20384713821919    9.42069340473658    1.23899915555168
C         1.50608055311737    7.44485108502847    1.63511414563418
H         1.22858406210127    7.64911855448049    2.65831745464324
N        -1.68545402500791    2.04348593036740    2.11295545564329
C        -1.71658592349430    1.28128194431198    1.25062525777223
C        -1.79930460455642    0.36184480621855    0.19717313441742
C        -1.54713177025555    0.78339200470830   -1.11308446140000
H        -1.28950740983949    1.81476001674527   -1.30163905212617
C        -1.63520689270956   -0.12653874737821   -2.14753601001500
H        -1.44254419789366    0.19353639557741   -3.15988152149556
C        -1.97161536505029   -1.44760873277465   -1.88908430500888
H        -2.03974751827969   -2.15297125745341   -2.70276389185431
C        -2.22236821085582   -1.86590417846049   -0.59016965214052
H        -2.48521863453431   -2.89413742649564   -0.39526759126396
C        -2.13879667013760   -0.97032020356344    0.45730794543411
H        -2.33445404317809   -1.28332650860498    1.47182093826969
N        -2.19952565422583    4.31392533905176    4.34948466520521
C        -2.61411627671627    5.15295573632615    5.02002814523118
C        -3.16033746479012    6.16160363035758    5.82392422847411
C        -3.51875652773825    5.88049357079089    7.14695671746041
H        -3.36946033570119    4.88649603573607    7.54092814658697
C        -4.06302767901959    6.87928500050236    7.92937876502606
H        -4.34226985765525    6.66744818896794    8.94991932256109
C        -4.25298979857620    8.15061580433197    7.40710845049818
H        -4.68037877709787    8.92584817682047    8.02402497275463
C        -3.89796225535784    8.42979659256126    6.09516987089327
H        -4.04961740334463    9.41983381406985    5.69367785116096
C        -3.35209730202229    7.44387596586518    5.29760948306685
H        -3.07504559412702    7.64798173091139    4.27425187638037

