117
CSD_code = ENEQOD | q = 0 | S = 0 | Stoichiometry = C45H67N3OTi | MND = 4
Ti        3.33871218127676   10.48039181384980    5.36078443308891
N         3.08097380515185   10.93023063073408    7.17621113073820
C         1.94067078653205   11.67751121366239    7.07639846405544
C         1.69309492416658   12.52649149809355    6.04241591925423
C         2.62163187104745   12.99782832958859    4.99719439278536
N         3.46975158906317   12.07091024922337    4.42073809198071
C         3.45908347178505   10.38683787653530    8.41208984000303
C         3.10032967329958    9.07346350142158    8.76357022131779
C         3.51239454270244    8.56536178250103    9.98671609187591
C         4.23516587043844    9.34383558238919   10.86959230848305
C         4.58173478678796   10.63796580790968   10.52547347418467
C         4.22071663271623   11.17434244829719    9.29933837437501
C         4.64306743001977   12.56963855444431    8.88811639407734
C         5.96475680878840   13.00481573480958    9.52344337689889
C         3.57158740292680   13.61090520164409    9.23682662423441
C         2.27104028364856    8.21847518549338    7.82809374810393
C         3.10836472240674    7.08654769489070    7.22415579881616
C         1.03947811244258    7.64604224431701    8.53824950061491
C         0.90192639289898   11.53565127312323    8.17691298568732
C         2.57193869649596   14.29938820081428    4.64071924736888
C         4.27324860408263   12.50199057034025    3.35116858404498
C         5.60896069264909   12.87891037195183    3.57127711854752
C         6.32581832079421   13.45251633992968    2.53088943498126
C         5.75785171600648   13.63236933855435    1.28340076964238
C         4.47250107077399   13.18479701689228    1.04659716226410
C         3.72363194417882   12.60571171304291    2.05913499428139
C         2.32688217267030   12.09369011194250    1.78239825658345
C         2.27327851570758   11.23235888327093    0.51802407783444
C         1.32949094953078   13.24944942528146    1.66626402645954
C         6.23412092595048   12.69677807673537    4.93553143145525
C         6.19755130745263   14.02718407827045    5.69541596476485
C         7.66591080154260   12.16739626337924    4.83833291858348
N         4.67460393545560    9.46551891302298    5.05860834725286
C         5.89219366047418    8.99191984644025    4.77429455136739
C         6.30667293841917    8.78803286941715    3.42514535091788
C         7.55895071096858    8.27364601042551    3.15131484610133
C         8.44951809019017    7.95674749011211    4.16163750897108
C         8.06456008616677    8.14638692198402    5.47705238897635
C         6.81639533712980    8.63894679292177    5.80158781219728
C         6.42407639087033    8.79703515821013    7.25099500511952
C         7.24816128918290    9.88821625020240    7.93377028563009
C         6.56985674091232    7.48025653491088    8.01876559561754
C         5.36271727931919    9.11806076999159    2.29111439049877
C         6.03056768023328   10.02228452423683    1.25441033275933
C         4.87138527730647    7.82890717867468    1.62281262127238
O         1.60798095729705    9.40004800462398    4.59474810822603
C         1.87560671347277    8.13380891870504    3.98518541043865
C         1.39623126438294    8.03940639551864    2.54179946623528
C         0.22096865248081    9.65182179728541    4.85005395957937
C        -0.39265734499270   10.66040642933754    3.88522589528720
H         0.76957099316185   13.09520351297281    6.09047081981249
H         3.25544260510931    7.55285409475023   10.26136211792921
H         4.53338020097814    8.94128426412386   11.82669706984648
H         5.14785612111834   11.23095969165420   11.22652797693216
H         4.76424764534496   12.55596130750202    7.79396193241414
H         6.72896933460592   12.24178855860198    9.41066917694331
H         6.31489067552629   13.91703324459494    9.04443323084673
H         5.83578390099477   13.21967314723584   10.58222071625560
H         3.29025535085071   13.53100917176981   10.28607286920281
H         3.96227036194998   14.61108907759313    9.06043195055799
H         2.68562329206346   13.48771692419487    8.62211966803240
H         1.93216593536735    8.85700731182570    6.99766270929394
H         3.85677538296128    7.50059155945315    6.54628530476175
H         2.47168249847879    6.39734938506099    6.66955084640739
H         3.61200620695586    6.52690601957619    8.00812113742080
H         1.32984625496553    6.88291422637607    9.25575838647183
H         0.49794065607349    8.42273903340472    9.07532203447510
H         0.36298394135821    7.18762126899000    7.81745082957853
H         0.41287826153193   10.56004475638332    8.13429805210946
H         1.37527963209528   11.61413927417749    9.15504123286454
H         0.13832581069129   12.30595330869075    8.09177421681511
H         1.87685333443945   14.97398778046752    5.10987340801853
H         3.22787102049759   14.71322215263195    3.89461249578497
H         7.33974907801113   13.78300883101224    2.69642249648031
H         6.32172637050398   14.10621417420860    0.49333166798300
H         4.04497828133551   13.30352148008370    0.06203224385841
H         2.04306601385027   11.46047862670188    2.63643217213522
H         3.01608797622699   10.43907740236061    0.56229560610252
H         1.28510715240707   10.78561959942859    0.40881191241683
H         2.46352821918272   11.82873566590106   -0.37053150417777
H         0.32319419698475   12.87272771499730    1.48702813040783
H         1.60528498496730   13.89984033794958    0.83886266946336
H         1.32750374482581   13.83976951481658    2.58046088914385
H         5.62973538339901   11.94720775295018    5.48684797196293
H         5.16869416101065   14.35501089219168    5.83534211172661
H         6.73050360895387   14.79452579153124    5.13597500564218
H         6.67019893150825   13.92065289633819    6.66921596644124
H         8.05389437677583   11.95824105521728    5.83196892860605
H         8.32792412636395   12.89181280405241    4.36983032030701
H         7.68651736239963   11.24348835914955    4.26558864284712
H         7.85615188930061    8.11389634999389    2.12428453698606
H         9.42720303189225    7.56233634028331    3.92656194419703
H         8.75686027037849    7.89427646659958    6.26820733144857
H         5.37207267755092    9.11405773416313    7.27138469195628
H         7.02832091476354   10.84975611776147    7.47742543079323
H         6.99531036348180    9.93194001953370    8.99168174151555
H         8.31351095881648    9.68772952556851    7.83803263964289
H         6.09451692082976    7.56377916790779    8.99444897610136
H         7.61921886915446    7.23782866262285    8.17048817965960
H         6.10938637833574    6.66151043548476    7.47116517805292
H         4.50308036862463    9.65976143551362    2.72909512623342
H         5.31224899821020   10.34592362505729    0.50418422183307
H         6.43972164762437   10.90546006379871    1.73589653784739
H         6.83600148674049    9.49943670622674    0.74425668313356
H         5.70841684896595    7.30601387559227    1.16493968310387
H         4.42057109194449    7.16210058214775    2.35548410115851
H         4.14070733571074    8.04609990289399    0.84502830017740
H         2.97004675262352    8.03878159882879    4.03122009593097
H         1.41294720356433    7.33636409606323    4.58841452266984
H         0.30966658422093    8.05449795101235    2.47757057920503
H         1.80455744194031    8.86517827328866    1.96421742617670
H         1.74792370591858    7.10705009751671    2.10895204882959
H        -0.32976287015761    8.70279576605920    4.81436980117603
H         0.14161974950401   10.05463768373059    5.86810993627646
H         0.11924040070567   11.61708850457343    3.97294300385223
H        -1.44028201763018   10.80580662265567    4.13834469775127
H        -0.32710705404061   10.31777260485803    2.85576213633654

