136
CSD_code = ENERAQ | q = 0 | S = 0 | Stoichiometry = C53H71F3N4O3STi | MND = 5
Ti        8.44139788759338    3.68210731493626   13.75686015122086
N        10.36973858241970    4.13372277984181   13.24726864146408
C        10.70376644292416    5.08721786119407   12.39924283170805
C         9.79529054928620    5.71093220593122   11.54326696047186
C         8.48435816230712    5.31594566956265   11.27686835469957
N         7.86622647566796    4.35679929303296   11.94057026110392
C        11.38753325036920    3.52312463796643   14.02073003429653
C        11.89383614160970    4.16560089765374   15.16783775383922
C        12.86006921885416    3.52298967638600   15.92875158043312
C        13.34909465256461    2.28176566105615   15.56714935477756
C        12.87923552640313    1.67285108498519   14.41990968870064
C        11.90558645076824    2.27450032268875   13.63351998084462
C        11.45905520740761    1.60866728550449   12.35124938526829
C        12.56033570992448    1.73443629730694   11.29328375404280
C        11.08585154330896    0.14047829840057   12.56752753541929
C        11.40142648282959    5.53034867073706   15.59079053544544
C        10.62122051255870    5.41760842970726   16.90165397081845
C        12.56150593908107    6.51986003417479   15.74130120642953
C        12.13734155679856    5.55215759282473   12.25150691794292
C         7.81328640605334    6.04586171965086   10.13362934378098
C         6.71398799236465    3.78143220779017   11.34817879993389
C         5.42901220014777    4.16612005879633   11.76652085310309
C         4.31956075971663    3.58832248881552   11.16449898460145
C         4.46097889024750    2.65342764729218   10.15786946856253
C         5.72482299294666    2.31314791865213    9.71633412011944
C         6.86353848575979    2.87651884192411   10.27674961471171
C         8.21119484635556    2.55775153144521    9.66122557793254
C         8.25033317566023    3.03733714746133    8.20469960340560
C         8.53351702149784    1.06261378183157    9.70871438590468
C         5.23927563711007    5.24251045603289   12.81040806528858
C         4.52772595615844    4.67626244363436   14.03860822955525
C         4.45127288532599    6.42527134167994   12.23784288313022
N         9.38373339057067    2.54601518261987   15.40650427959044
C         9.54917368888151    1.60907078170787   16.05014016918112
C         9.74755007500218    0.49288336529226   16.91982022563248
C         9.21262692756447    0.82402445687315   18.30149876190753
C        10.03089011120496    1.49447105098797   19.21153029145285
C         9.54948876332392    1.75834321773523   20.48551710759095
C         8.26817507614334    1.38773082559867   20.86615455292401
C         7.46092737155404    0.75132115276972   19.93491071114361
C         7.90935768236704    0.46819544069509   18.65186800634569
C        11.41273649535320    1.93309643131154   18.82974795719990
C         7.75204616618154    1.70936118206522   22.23459877730744
C         6.99398174234619   -0.21233531196105   17.67973002004846
N         8.10645740334773    5.05950946939741   14.69756546114878
C         7.45358238696239    5.96716522120056   15.42654842309129
C         7.42528767040114    7.34054041532668   15.03349712136839
C         6.63441431897520    8.24773639966510   15.70931853092396
C         5.86801710558901    7.86560177481467   16.79664400598464
C         5.96410189960088    6.56369099033253   17.25603682575116
C         6.75018216984762    5.62003486622566   16.62182706238764
C         6.92432798493601    4.25917589043010   17.25959385030250
C         5.61762223900504    3.47202927644706   17.38613256980658
C         7.54805100593530    4.42246498710938   18.65247819327590
C         8.32601264685466    7.80477333435895   13.91218537923400
C         9.45227328677681    8.67323261420554   14.48331951313908
C         7.57528632804170    8.58453298025047   12.83262623562842
O         8.36427984211493    1.72283048554543   12.74084007134074
S         7.45700329933172    1.23745493803801   13.75036163088992
O         6.86294112340308    2.35626836776854   14.45806458642710
O         7.94916640999020    0.15202774996633   14.54596989716589
C         5.97067765568702    0.44951026914478   12.88792857226246
F         4.95986523483302    1.31431064858130   12.81670273884800
F         6.23083178473949    0.00405100036154   11.65802181672692
F         5.54670282731635   -0.59336382371734   13.60839976845607
H        10.18493928375125    6.51589475804522   10.93618249265493
H        13.25119742813835    4.00716844477466   16.81078952397880
H        14.10734203200707    1.79998309074845   16.16738710356614
H        13.29057798462060    0.71975062800644   14.12361429343169
H        10.56806046739465    2.12801582555326   11.98301576941596
H        12.78934312668553    2.78052198604972   11.10271700385529
H        12.23955891044232    1.27617704833880   10.36039620267253
H        13.47066413736616    1.23887325768675   11.62532492441240
H        10.72173897525029   -0.28568853235627   11.63523619204428
H        11.94081244900576   -0.44754086065940   12.89440492731115
H        10.29355177564068    0.05605083685765   13.30985703659736
H        10.70055645838332    5.89712505171674   14.83260070657693
H        10.21082301131736    6.38716537399171   17.17515812820174
H         9.79691717421825    4.72241563882043   16.75908286114380
H        11.25787297731996    5.06912145242124   17.71264401444837
H        13.18784305981576    6.25902147046094   16.59111683790860
H        12.17659599389044    7.52339822501360   15.90521279338079
H        13.18620603391316    6.53143167601634   14.85187157234567
H        12.83018934841476    4.90083199681736   12.77717704582078
H        12.41038532311542    5.58722276196869   11.19861195752582
H        12.22953633640719    6.56020913876787   12.65202945433287
H         6.84805748546223    5.61269716192714    9.88690630118705
H         8.44894068040458    6.03621961592888    9.25071944973032
H         7.66719583676258    7.08449714970219   10.42328771565646
H         3.33053932335145    3.87979867055604   11.48192035503147
H         3.58944423370213    2.20690197101083    9.70295668515610
H         5.82697925232646    1.60721265460063    8.90627793389330
H         8.98979994632767    3.08748206361985   10.22104134886110
H         7.94350389252762    4.07610824628436    8.12275402379118
H         7.58491815992943    2.43878557628258    7.58713853549683
H         9.25925546272664    2.94215655527656    7.80811277075273
H         9.49268473280229    0.87918438154628    9.22683836124751
H         7.77411271303484    0.47877895283722    9.19478622440647
H         8.58830949963293    0.72477609565076   10.73852217000572
H         6.22828624790670    5.59538677447143   13.13245001904975
H         5.10677794047830    3.84132422363051   14.42599677028550
H         4.45616603508990    5.43856891515766   14.81079653273486
H         3.52713854634465    4.32850898399434   13.78956884481219
H         4.40952110551657    7.22543185415045   12.97325652330031
H         4.91883762858075    6.80545066244554   11.33159414386959
H         3.43212479961588    6.13307865148701   11.99497038890269
H         9.21187596769658   -0.35267577588350   16.48223944513384
H        10.81496051951395    0.26073185832588   16.95725956387750
H        10.18367653045231    2.27237560466489   21.19330113563974
H         6.45425153767734    0.47334227548433   20.21279487474634
H        11.39457673513422    2.50101850772422   17.90056594020870
H        12.07038115964053    1.07359843322820   18.69111193832256
H        11.83844555823285    2.55683409023103   19.61156333174273
H         8.56182665023234    1.73269936708411   22.95987353366076
H         7.01159088901343    0.97924796988673   22.55228355320106
H         7.27724090212484    2.69090279096034   22.22683805567903
H         5.98702668712033   -0.27034139839944   18.08547984934686
H         7.33236611286803   -1.22918427902527   17.47577879562218
H         6.95572938988506    0.32052685737431   16.73040132633449
H         6.61401608433382    9.28028026317533   15.38994879116279
H         5.23487196528562    8.58058772251478   17.30140009146218
H         5.41402382194327    6.28330967118349   18.14369058453719
H         7.60589558546954    3.67989483498607   16.62237234000487
H         5.28528635965130    3.13114981755763   16.41060285305106
H         5.77698777075575    2.60016219640558   18.01830191914180
H         4.83365808847236    4.08117742389150   17.83067032806655
H         8.42222056663872    5.06616452943164   18.61418731505687
H         7.84565392539712    3.45535240899936   19.05046060105241
H         6.82972871158626    4.86736365890308   19.33775150483868
H         8.76519980242429    6.90241495694125   13.46178048867510
H         9.95961180717060    8.14766464068494   15.28665311385367
H        10.17741896336460    8.91594608513606   13.70856468991954
H         9.05140235354268    9.60221170697822   14.88380168273445
H         8.25341238647904    8.84129193474019   12.02026766395186
H         7.16758124622361    9.51021788148605   13.23254272902449
H         6.75572645583391    7.99188830569712   12.43923407669149

