70
CSD_code = ENEYAY | q = 0 | S = 0 | Stoichiometry = C34H26CoN7O2 | MND = 6
C        -2.41330301254981    1.71182827309197   11.27382885016756
H        -2.95340047380768    2.39600765481735   11.90334268641982
C        -2.44669992606912    0.30802787723029   11.32003777921861
H        -3.01934144607437   -0.28351455545325   12.00743131664036
C        -1.61694103932979   -0.13452122642524   10.31894371865309
H        -1.40541620010913   -1.14864475218374   10.04029031303026
C        -1.10362478035125    1.02261848583306    9.67611873055930
C        -0.33716778449360    1.08175058168432    8.51245903721354
C        -0.08476985280362    2.26951009516711    7.82620680517500
C         0.50087389283529    2.42268128186121    6.54192529391329
H         0.92216128786284    1.63553312337422    5.94776442752337
C         0.40130461564343    3.75395444724697    6.22030967440638
H         0.72328092303622    4.23602120491002    5.31793356802884
C        -0.20892064261754    4.38456433924026    7.31649151152993
H        -0.44534977334085    5.42874094512492    7.41147897127477
C         0.15676512543014   -0.18822691350860    7.95037422761889
C         1.05841970301124   -0.97065221336498    8.66762619318930
H         1.40653008953481   -0.64987504551504    9.63727549889367
C         1.50226647600185   -2.15572393429201    8.10382461918636
H         2.20629818261117   -2.79081847728364    8.62550584347870
C         0.24482214137277   -1.85562108337735    6.24369917850797
H        -0.05526335183498   -2.25249712617416    5.28264442599372
C        -0.26032906705944   -0.65059321703008    6.70502321301123
H        -0.97412199686877   -0.08790218165957    6.12364269746190
C        -3.63054117436692    3.91182491526703    9.07932495673841
H        -3.55226600198179    2.89198169525067    8.74928057283924
C        -4.77907938656388    4.71908623240727    9.05658639261874
H        -5.74732403409208    4.42330788936280    8.70267253747620
C        -4.40808676836106    5.93877389827650    9.56666740338250
H        -5.01700101965465    6.81384680860788    9.68599690438958
C        -3.02551936118560    5.84700136224084    9.87637970988397
C        -2.18528408208226    6.88767185431158   10.27437846425213
C        -0.79601612522674    6.77705444273412   10.30123682496471
C         0.16361941681558    7.79725800689125   10.53597201822200
H        -0.05343216225479    8.80795921923578   10.82165660908683
C         1.39678541224812    7.23354224431858   10.31835664073587
H         2.35658837083994    7.70724319107216   10.38791258072994
C         1.16646673774483    5.88909675899075    9.98100080479308
H         1.90349679583570    5.14737414016260    9.73039065028585
C        -2.80090601928046    8.18710157327953   10.59737116377638
C        -2.51671512365124    9.33273505795445    9.85842141204130
H        -1.84308271455400    9.28785340550756    9.01677236763209
C        -3.13508785723344   10.52053061761570   10.21433946095244
H        -2.94484746868263   11.43276254303647    9.66402650313244
C        -4.25158516124127    9.54246752716744   11.92547657848598
H        -4.95011005298784    9.67547460865752   12.74127034169935
C        -3.69888434023800    8.30109665054349   11.65586806485595
H        -3.94697893988350    7.43820124463460   12.25399053006614
C        -1.18804967733756    4.58581623569076   14.22220882184915
H        -2.16688491498371    5.03325539179064   14.06848287582912
H        -0.51401642609333    5.32380581214385   14.65375980192589
H        -1.26586358321327    3.75774246198959   14.92428889009371
C        -0.63875223616654    4.10021254692199   12.90407035649427
C         0.61302343347752    3.44274244916324   12.91437000469478
C         1.22872910676155    2.98175665775324   11.72807414398908
C         2.55387089332063    2.27150737180150   11.85244700494898
H         2.90655235694907    1.97984864256892   10.86592902290578
H         2.44492593327180    1.38927498604851   12.48086314047586
H         3.28470905203630    2.92502553264657   12.32549071925353
C         1.26664813017967    3.24215132886248   14.14147891466884
N        -1.61692246655783    2.13991291830925   10.30300696379412
N        -0.48792065473140    3.51169918357929    8.27670375128793
N         1.10807542767976   -2.59297665779066    6.92046430636115
N        -2.58857346640539    4.57493099733039    9.56661477055384
N        -0.13013002104375    5.60937472263018    9.98355154826727
N        -3.98044241952637   10.62973558840579   11.22442417705172
N         1.80168820122519    3.07512235989408   15.14460118733822
O        -1.33414197760528    4.30413001876259   11.88173465606907
O         0.76166414892005    3.12768926665685   10.57463598054647
Co       -0.92497087013610    3.88464871398854   10.05567088743662

