26
CSD_code = ENEZEC | q = 0 | S = 0 | Stoichiometry = C11H7NO6W | MND = 6
W         6.22602290705621    1.38930528103637   10.70429745829372
C         5.19449976328717    3.08586780705617   10.97449316174885
N         4.37630872859964    0.52959205809368   15.73127176943749
O         4.61855147579201    4.05638181897796   11.14155323956311
C         7.86018462601553    2.36553404941111   11.33969884664513
O         8.77836169255287    2.93602174071209   11.69860006906634
C         7.24318708193519   -0.31806171190309   10.48211689249450
O         7.79222208536801   -1.31177231086229   10.35649904022278
C         4.58775662675170    0.40850796429663   10.11425418697933
O         3.66293487232781   -0.17913255998886    9.78803789748354
C         6.63582698845243    1.89827153635400    8.80856966487201
O         6.86823191039356    2.18032179362018    7.72588929390393
C         5.83640302490622    0.88021582036580   12.71615299021922
O         6.23547075534062    2.81213642776483   14.28485833674236
C         5.80563575391341    1.74862689926038   13.93664297301248
C         5.11291285298194    0.61144874852427   14.64642966620117
C         5.39998238104395   -0.19290833727718   13.52924344763850
H         5.29172965137863   -1.24641817042480   13.34057722437219
C         4.22824637089077    1.66356992929644   16.61235019082988
H         4.54801807698436    1.39338867405174   17.62085611443893
H         3.18219946836315    1.97594848148840   16.65103193501974
H         4.83658024108859    2.49089634449328   16.25458905761387
C         3.63732550390052   -0.65898708308146   16.08379579416729
H         2.56900574489549   -0.43549182778954   16.13019489847839
H         3.95862157419086   -1.02125035569068   17.06267983599635
H         3.80657984159055   -1.43551301778576   15.34271601455879

