31
CSD_code = ENGCOB | q = 1 | S = 0 | Stoichiometry = C6H16CoN4O4(1+) | MND = 6
Co        8.62626365441550    7.54141811100996    5.27813916324371
O         9.61815477759759    8.40621634013244    3.98007400677311
O        11.57540085024703    8.54090099416480    2.95720413286467
O         7.64348697285059    6.67524784508741    6.58177615419498
O         7.20164655221254    6.52140085832897    8.74409843288112
N        10.21149334311287    6.37294539525122    5.49216060839533
N         9.28564164475272    8.68749531052372    6.75308407528382
N         7.06726344761590    8.71509959292061    4.94079229805180
N         7.85442548214902    6.39061669983367    3.86300794638775
C        10.84773789505319    8.07476265156399    3.78802375879188
C        11.35738377604855    6.96970519104410    4.77335872993514
C         7.80086454394578    6.99385303102587    7.81955725508103
C         8.89354562459976    8.09177605503927    8.04829175292658
C         6.45622320892855    8.32232063348402    3.65826219150836
C         6.45769376831744    6.80342558284609    3.63642306630397
H        10.02150313595789    5.44861096157997    5.10288298528017
H        10.45440263136190    6.19552417333107    6.46791096816536
H         8.88068089120678    9.62170110039736    6.68064327306100
H        10.29432143610180    8.84235983844006    6.72224488119064
H         7.27388934349878    9.71360485652898    4.90490474248161
H         6.38121501755496    8.56190453406743    5.68494357130560
H         7.86454152706000    5.39004029700081    4.06250559005832
H         8.38046278896580    6.54499161003383    2.99851601360221
H        11.91627192400307    6.22969839781291    4.19880841755441
H        12.05240375971141    7.44880744736201    5.46479111065012
H         8.49212133601201    8.83385344637519    8.73984838408002
H         9.74165944760257    7.60745232503529    8.53481343715398
H         7.08327321521567    8.70776746873879    2.85075947676782
H         5.44459498784599    8.72374387253535    3.55278163254297
H         6.07003563100197    6.41587623145340    2.69028615926700
H         5.85149738505251    6.41777914705135    4.45960578421541

