68
CSD_code = ENIBEK | q = 0 | S = 0 | Stoichiometry = C32H28ClN2O2PPdS | MND = 4
Pd        9.08119406036434   -0.76368646382845    4.26898879511193
S         9.27626057559952    2.44878467454747    0.37347571629794
P         8.55680791332268   -2.09062604998460    5.99520099019490
Cl       11.20529595973917   -1.46856671421548    4.47673835811288
O         7.21168909716524   -0.02960139611389    3.96965761930837
O         2.31690146464438    3.29744277392394    1.89175463604078
N         8.31508580259127    1.13361604010916    2.33494098304624
C         7.23342061707187    0.82425612073280    3.01796196052587
N         9.42799778144355    0.47023252209290    2.73120110315491
C        10.52894655272540    0.68837592098115    2.07655694524293
H        11.40872155362636    0.15292071388603    2.41604069851130
C        10.64850031524578    1.56532329847074    0.97135036142650
C        11.79386224280495    1.83645940865961    0.24019677200284
C        13.12618261975758    1.22480603488200    0.51865229152703
H        13.46025294089611    1.47015845195915    1.52619915971187
H        13.86261974533212    1.59155703459080   -0.19165625368058
H        13.07609206862210    0.13929677414947    0.44063495950285
C        11.54663588267593    2.75675516085847   -0.79419181614029
H        12.30767043607793    3.09719057976465   -1.47478552886300
C        10.24878932428662    3.16930928215992   -0.84352936285303
H         9.81129963822636    3.86254579858169   -1.53473145681967
C         5.96963772338894    1.49678185224314    2.67598380050563
C         4.79702462628570    1.10442439892339    3.32510095819414
H         4.84477821201324    0.30669542116741    4.05174455977804
C         3.60193944780530    1.72105190211999    3.04011097626343
H         2.68829432264172    1.42726577983619    3.53268688868587
C         3.54490657611530    2.75118311494284    2.09711192320290
C         2.19042211596069    4.34378675983729    0.95928209026012
H         2.79431786230747    5.21117786101954    1.24438848522598
H         1.13725371572094    4.62036970175939    0.96813429848450
H         2.47080359418175    4.02053457162794   -0.04826532667535
C         4.71238683420790    3.14354401314312    1.44702387542280
H         4.69978370852296    3.93483192411336    0.71414388466493
C         5.91077225890789    2.51980204166180    1.73677935981223
H         6.81449959638678    2.82465839387305    1.23618404822127
C         9.12048652652708   -1.36268831826071    7.56127646083710
C         9.79070210890816   -0.14399537013622    7.48670141536277
H         9.97269341954903    0.30784280934912    6.50428788723692
C        10.21982404579568    0.48046038369683    8.64416330317662
H        10.74341690925235    1.42318558824313    8.58859941719449
C         9.97533521081780   -0.10558024997211    9.87589393724915
H        10.31460503317168    0.37879545951809   10.77954239499267
C         9.28557866987189   -1.30552797545084    9.95442754398953
H         9.08347842364701   -1.74960451350082   10.91823755471827
C         8.84915112042764   -1.93258907451182    8.80157928891954
H         8.28616438642762   -2.85438380420769    8.85845991957922
C         6.80940468060792   -2.43667631613604    6.37252895828270
C         5.99358948556387   -1.32711705587882    6.58157370034911
H         6.42805168314625   -0.33690042054470    6.51566001928037
C         4.64907598806414   -1.49625919034719    6.84750712636077
H         4.01550949234845   -0.63551535639534    7.00476605795913
C         4.11141847625333   -2.77367999661479    6.90543842550900
H         3.05917742612779   -2.90712798784322    7.10907821345414
C         4.91982586593643   -3.87799536633677    6.69574693189230
H         4.49865597797280   -4.87196707493976    6.73802418072244
C         6.26837783569641   -3.71476169783497    6.42638624633755
H         6.89856001349032   -4.57697673834720    6.25602497924288
C         9.29563307756343   -3.73356000209208    5.78397515707224
C         9.93526357252319   -4.48024067591488    6.76184825385102
H        10.03089545000579   -4.09372253841565    7.76580374341225
C        10.47425497994936   -5.71354949868384    6.43343175194933
H        10.98001455183184   -6.29491573101810    7.19042495793767
C        10.37680574122899   -6.19799826575397    5.14029257273197
H        10.80359972353305   -7.15842052817192    4.89183392893484
C         9.75073969626820   -5.44564461005341    4.15686700646933
H         9.69406690241471   -5.81774195016762    3.14466481463334
C         9.21746851110153   -4.21311156478671    4.47615681356689
H         8.74892783823247   -3.58469006801503    3.71243028175168

