54
CSD_code = ENOPII | q = 1 | S = 0 | Stoichiometry = C23H26IIrN3(1+) | MND = 8
C        -2.23606727063833   -0.11450709878857   15.98550417637295
H        -2.88112670939371   -0.64417642218384   16.66536230027944
C        -2.66253982552579    0.27200500850654   14.73540080896755
H        -3.66102985864881    0.02102629292410   14.41395061721128
C        -1.83711271004088    0.99736636887549   13.86802493255113
H        -2.21650643250639    1.27600474790507   12.89772124561834
C        -0.56329589825212    1.38116341142675   14.23099154695824
H         0.06260156829200    1.96070097744080   13.57172104245310
C        -0.12751615162683    1.00335434631363   15.49295013798594
C        -0.94269467530716    0.23959377566532   16.36280495651098
C         0.92255906587378    0.66236469529811   17.39481927477943
C         1.75808355957937    0.69605001359951   18.54891056368202
C         2.97647046354139    1.36339168480789   18.68657292102708
H         3.43273169951273    1.88122889282201   17.85852746228896
C         3.59682161222832    1.36800072602815   19.91062076290123
H         4.53876534056197    1.86823158228519   20.07013459912341
C         1.16663800376347    0.01892501364994   19.66376798725965
C         1.86127145414787    0.12019737153758   20.85565809683740
H         1.46424580664054   -0.30039091853088   21.76709145724453
C         3.68685549685647    0.86083370398174   22.25813619776745
H         3.32111380764256    0.08669564797206   22.92875497221655
H         3.47915655374705    1.83477426033257   22.70607414215563
H         4.76489986294301    0.75363331424687   22.14617515669916
C        -1.71477098937820   -2.79216049137842   18.66972043273764
C        -2.52851051908620   -2.16516985744222   19.62179973631036
C        -1.76228364537546   -2.04502765947637   20.85486402361179
C        -0.48765167863921   -2.64369699575050   20.64714862850126
C        -0.41282586619509   -3.01718401115685   19.26493012789338
C        -2.09527041945983   -3.30332688480987   17.32093964753550
H        -1.42352633243935   -2.93896380930284   16.54408631318428
H        -3.11226006521173   -3.02534888890558   17.05821612836684
H        -2.03345136703832   -4.39263836454046   17.32633626077675
C        -3.98173845949644   -1.83956354726953   19.51862427677821
H        -4.33680174309250   -1.91095531022378   18.49351541292098
H        -4.18884104346568   -0.83431410112027   19.88312519258372
H        -4.55642388435485   -2.53775872907121   20.12872045385925
C        -2.35676322058471   -1.66356699594376   22.16897958356539
H        -3.09672320330857   -0.87525568976364   22.05500036253005
H        -1.59913830946040   -1.32235237219993   22.87043380170831
H        -2.85398200991792   -2.53391188501560   22.60085445060932
C         0.50282892582931   -3.01082394940935   21.70469940508392
H         1.52542285658651   -2.95018029575744   21.33720145354537
H         0.32025711686919   -4.04052350361210   22.01613326538379
H         0.39939580786827   -2.37761655058955   22.58271675430528
C         0.66465532311926   -3.83977369252883   18.64091414834968
H         0.73203678649224   -3.65573402661387   17.57073180143782
H         0.44365152258659   -4.89895692845971   18.78553496701528
H         1.63310565228235   -3.63415029304704   19.09169478643728
N         1.03784023937317    1.24358708288087   16.17464816750083
H         1.80928107153539    1.80002244722626   15.84575594939706
N         3.03547513989080    0.76187471574114   20.97129274778958
N        -0.24825206436530    0.02781382443836   17.52280056309662
I        -1.73088680582457    1.48280770167780   20.15805328058880
Ir       -0.66037357916197   -0.83451833470094   19.35395251770568

