26
CSD_code = ENOROP | q = 0 | S = 0 | Stoichiometry = C6H14I2O3Zn | MND = 5
Zn        1.99124012635158    2.70001206802202    2.00341520427166
I         0.72613900473403    2.90177277175526    4.14596112002270
I         2.25469405122964    2.64594478314016   -0.47595137919502
O         2.43156197580983    0.31929313926557    2.23213459161192
O         4.18245507634442    2.37714557486091    2.72555946216818
O         3.10804973972869    4.85076286401280    2.20535778171619
C         1.43629914799860   -0.61905826991485    2.58749234728627
H         1.75507016884653   -1.63117670088045    2.31896696882228
H         0.54035560911678   -0.36093217658850    2.02627393352301
H         1.22023746464258   -0.57853855362016    3.66033327026739
C         3.67184018764957    0.06799169688965    2.85280831316061
H         4.02587359174232   -0.93933101613146    2.59524778812557
H         3.56873103382321    0.14523912678849    3.94519349471916
C         4.67062821210006    1.10360168637651    2.35656993740294
H         5.65132334719646    0.92976935360318    2.81828557677738
H         4.76803669267455    1.03420955512562    1.26449458946937
C         5.02076100710954    3.44838222953549    2.34337543786353
H         5.13295296845470    3.47384025421208    1.25081339203084
H         6.01000801621369    3.33357083602507    2.80530367656765
C         4.36848510356328    4.73609599678344    2.82571337451883
H         4.24874618154704    4.70487292204372    3.91869387960299
H         5.00087372895361    5.59313333731260    2.55747542542265
C         2.43102990771275    6.04324790726886    2.54729417657139
H         2.21545875927571    6.08127996974899    3.62030926238444
H         1.49722464603277    6.05077091062528    1.98851549939298
H         3.03062425116203    6.91469973375092    2.26596287550059

