19
CSD_code = ENOREF | q = 0 | S = 0 | Stoichiometry = C4H10Cl2HgO2 | MND = 4
Hg        6.43838250208187    0.56409131651236    6.13567414746827
Cl        5.09588576146374    0.35298942182768    4.29436053300652
O         5.11787910840529    2.84402947194816    6.76499708822768
C         3.70640851563947    2.81304668147273    6.65470078047789
H         3.27970287146173    3.75834312628826    7.00774935866038
H         3.35826983216079    1.99744544305821    7.28490528064661
H         3.39548891767917    2.63718344032272    5.62025983321266
C         5.68436051379221    3.91852343697913    6.03704605442665
H         5.26638975744117    4.86660067466815    6.40478768251448
H         5.45602406681451    3.81315238738445    4.96718319246997
Cl        7.78088471854639    0.35299048071450    7.97698465314969
O         7.75889387965157    2.84402091171050    5.50635337418136
C         9.17036196048244    2.81303983254556    5.61665613917348
H         9.59706764370855    3.75833350531066    5.26359692448301
H         9.51850179094486    1.99742823242235    4.98646514171904
H         9.48127022388218    2.63719064522531    6.65110374685741
C         7.19240974065439    3.91852488599711    6.23428744370486
H         7.61037720528899    4.86660085003469    5.86653606729478
H         7.42074098990195    3.81316525557410    7.30415255832009

