94
CSD_code = ENOXAI | q = 0 | S = 0 | Stoichiometry = C44H44N2O3Pt | MND = 4
Pt        6.07899708770487    0.94745896227753    8.00650256186464
C         6.62539048835431    2.04923289313557    6.44989106125921
C         5.93854501478852    3.09152516047640    5.84188707920365
H         4.91304305800842    3.28706238575374    6.11960538407441
C         6.55415829894716    3.88199842681238    4.88432914825059
H         6.00638027131980    4.68863660893985    4.41761974179477
C         7.87433158155123    3.65172758016021    4.52203793025494
H         8.34716188515044    4.27870624451834    3.78032585397777
C         8.58423708293259    2.62439458924124    5.10950413072837
H         9.60978200676572    2.44964557228389    4.82042465304254
C         7.96716085892877    1.82334732729733    6.07025654054652
C         8.58520431444715    0.69460221690545    6.74381211807761
C         9.93992351799793    0.34041324336359    6.62212593220057
H        10.58019449432396    0.91512971692986    5.97381192063217
C        10.46646659160929   -0.66158999921959    7.39399000046050
C         9.57513782103981   -1.49855738925203    8.11549877782549
C         8.19660875765250   -1.14919780011081    8.11861979651149
C         7.27624634234732   -2.04307474860262    8.69602388423053
H         6.22400372363903   -1.81266151606056    8.61838751652370
C         7.70663847803945   -3.18754671146724    9.31272476285416
H         6.98988201944081   -3.86998689572775    9.74432681594931
C         9.07263642595522   -3.49122364057784    9.37725071239262
H         9.40016082636342   -4.39034532014968    9.87716270962474
C         9.98943903419496   -2.66824569328141    8.78045462217777
H        11.03887400708383   -2.92287969622866    8.78499379516317
C        11.94336011588622   -0.91293850089522    7.35553467374813
C        14.08662193376832   -0.88047673516902    8.47032465193400
H        14.60311488131099    0.07780028622156    8.52731875663932
H        14.32757298214339   -1.32275425175896    7.50069658905744
C        14.49394031783145   -1.79872842229884    9.59708221261607
C        15.20206289620312   -1.31475217688562   10.71310822018031
C        15.67404440065494    0.02089552701991   10.84041075576533
H        15.50882558744972    0.73041762851913   10.04565575336139
C        16.35485226220813    0.44311868760505   11.94107083104905
H        16.70165819872552    1.46442782901177   12.00131941630356
C        16.62110005121177   -0.43637260779901   13.00872121419695
H        17.16346187819172   -0.07871273577448   13.87111766279194
C        16.19592052503203   -1.72490414387376   12.93509458767862
H        16.39389304653007   -2.42034506682430   13.73817650367863
C        15.48460408396010   -2.20175832445342   11.80368518161948
C        15.04719269233737   -3.51914479065834   11.75198238865588
H        15.24144114590925   -4.17325194980260   12.59069336715467
C        14.36811958651169   -4.01528962891154   10.64606573686983
C        13.93335383976018   -5.36485224012432   10.60392202233910
H        14.14304221378011   -5.99282307363147   11.45815432016956
C        13.27717564030790   -5.85648266642547    9.51929340632186
H        12.94604046395626   -6.88413570517064    9.49186515307177
C        13.04359796199152   -5.02189229351947    8.40862285546534
H        12.54460664130915   -5.42621609781028    7.54021090488258
C        13.44183867316992   -3.71846036297103    8.41433124670311
H        13.26450248143726   -3.12496087347500    7.53329757648146
C        14.10105130491866   -3.14947038273426    9.53850411596801
C        12.09669264075314   -0.03719737372791    9.67300382869074
H        12.58664143859373   -0.50406436062740   10.53323705938999
H        11.02998509147904   -0.25813453846535    9.73076073319923
C        12.29053817509925    1.48475562480525    9.74728079983184
H        11.93484051938186    1.81485487643569   10.72508730045629
H        13.35060511317375    1.73309471785666    9.68324663531517
C        11.52085479371855    2.20903260237228    8.64873891547207
H        10.47371362351221    1.90115562046005    8.69062586847281
H        11.92217791458160    1.90753019642321    7.67945931673454
C        11.57090548841241    3.73081889651225    8.74488510554396
H        11.16461469831077    4.04977291509430    9.70715336096614
H        12.60555366122962    4.07703409588076    8.68895956481714
C        10.75432457127391    4.35360835538664    7.61348726233282
H        11.19332400922077    4.06538889686330    6.65537989762792
H         9.73918435991922    3.94951143538448    7.64082231447479
C        10.68508676131836    5.87532113110541    7.69191513715488
H        11.69524712948794    6.29111211204598    7.65778032776333
H        10.23868257369869    6.16864470634764    8.64483450255853
C         9.85729594952542    6.45581648696655    6.54753240559928
H        10.31447867950289    6.17525868098698    5.59594757319669
H         8.85682396708796    6.01789362846626    6.57196196271439
C         9.75348364118770    7.97348992128191    6.63141740326887
H         9.16194966715086    8.36318408906703    5.80632020332541
H        10.74154011634761    8.42742757519646    6.59005471966591
H         9.27954396829087    8.27204624402518    7.56396172725251
N         7.75926902349305    0.00918616233570    7.55225869188666
N        12.64554280241690   -0.64207089299289    8.47723431418954
O        12.46388807391246   -1.33827818111124    6.33662934392053
C         3.59994718083637    1.93391723219804    9.33625486711340
C         3.69676357191861    1.10343851155529   10.44957404162949
H         2.91861096050332    1.17176642017296   11.19394887085248
C         4.74671231279807    0.20842760738905   10.68583791440596
C         2.40069183681931    2.85792988926954    9.27121876111697
H         1.48090352563632    2.27805024091755    9.29793236897354
H         2.43585648158842    3.43774793931456    8.35290956699846
H         2.40367095149185    3.53356146741643   10.12379986918246
C         4.70185838938178   -0.57853903403551   11.98017377509480
H         4.66635921507125    0.09978645267600   12.82976936977807
H         5.58378176562077   -1.20982823609115   12.05680300505539
H         3.80919308476590   -1.20041371677800   12.00353677752489
O         4.40833702440976    2.02141050975759    8.36442052595075
O         5.71672545203530   -0.00395735327374    9.91931645609298

