37
CSD_code = ENOYEN | q = 0 | S = 0 | Stoichiometry = C16H12N2O6Pd | MND = 4
Pd       -0.00036596373479    0.00013119948314    0.00005004115683
N         0.71335356935235    1.59801230379440    1.04949561555172
O        -1.28827576620586    2.41346248301629    1.79693343443069
O         2.94098357578847    1.28847743117653    0.63475580348980
O        -1.56706352315650   -0.20088003980907    1.37129865996369
H        -1.74383143652388    0.74676004504393    1.59563233501077
H        -2.30010424107109   -0.49985559263542    0.77728082914580
C        -0.06782015464832    2.48906332455078    1.72475950024114
C         0.82711975091543    3.50194710896961    2.34415877966677
C         0.56890047426891    4.61132814135296    3.11833625382739
H        -0.44240348571501    4.89193764202283    3.36777436617694
C         1.66119243274856    5.35328372819961    3.56184101578744
H         1.49391767363552    6.22958946013182    4.17023748647338
C         2.95747874117385    4.98768453182698    3.23728326805687
H         3.78259345809851    5.58367200015861    3.59787000884141
C         3.21683851092601    3.86539774806136    2.45401340249698
H         4.22425485942705    3.57609929674191    2.19885123730952
C         2.13575212015287    3.13300601574088    2.01628706196167
C         2.03438401699011    1.91552182201500    1.16893033965140
N        -0.71324767186059   -1.59822531411031   -1.04924429985582
O         1.28836807712638   -2.41370338492335   -1.79667178693320
O        -2.94087603545464   -1.28869917986362   -0.63445370421554
O         1.56712462517101    0.20046339167321   -1.37068722215069
H         1.74405311905014   -0.74708462819268   -1.59533790324210
H         2.30034641828745    0.49953947410612   -0.77693133070401
C         0.06789880841402   -2.48924526876729   -1.72458258640280
C        -0.82709549949924   -3.50198158574964   -2.34417278041539
C        -0.56896118311301   -4.61124705393223   -3.11854783114681
H         0.44232058007096   -4.89188329781283   -3.36803917860000
C        -1.66131356460403   -5.35301259799514   -3.56223394618513
H        -1.49410614772671   -6.22921050062812   -4.17080334528690
C        -2.95757674215645   -4.98736781006208   -3.23763485991603
H        -3.78273871373136   -5.58320691398535   -3.59835999507276
C        -3.21685209466526   -3.86522274544851   -2.45414095620578
H        -4.22425069302876   -3.57587150607875   -2.19896184407198
C        -2.13570951362258   -3.13300618179163   -2.01626660597740
C        -2.03428838107993   -1.91567354627988   -1.16871926285770

