47
CSD_code = ENPDBN | q = 0 | S = 0 | Stoichiometry = C8H27B9N2Pd | MND = 7
H        -1.25545529353188    4.87838285432068    0.14586129654713
H        -0.92729450761152    3.35544781523694   -0.70009760458487
H         0.86426860026493    4.95883110448548   -1.12688177108225
H         1.12314712010763    5.19256715156535    0.61081990693450
H         0.30122719234753    4.60259629024955    2.57889671772317
H        -1.46177953047934    4.85248564713998    2.50957798656957
H        -0.77847910925021    3.49010272701343    3.43118117529691
H         3.40804257567412    4.50351850505868   -0.87161277114481
H         3.25082091202434    4.49123952775450    0.90073459102463
H         3.85664861882029    3.05629316215555    0.06229169223101
H        -2.83642860153964    3.13121973507005    1.26971985155837
H        -1.96003357550177    1.76071431599539    0.53386118725091
H        -2.04339639303735    1.90464151721569    2.28888504421610
H         0.70432227987306    2.01698751251182   -1.28940179850910
H         1.82762097126656    3.06891624273919   -2.19962508307840
H         2.43892672822431    1.71385064055428   -1.21224222352728
H         3.73418214942552    2.41427660800468    3.16172734370398
H         1.67225127619445    2.42224751442245    4.57331392966437
H        -0.37366838666371    0.86048562532540    3.53265493772314
H         0.76572925342930   -0.80782037509832    1.02138072647958
H         3.52892903242839    0.82649957983140    0.88458068310082
H         3.90867394600162    1.08513403908911    5.64759803450811
H         0.99559231437165    0.02517369336244    5.78991378379884
H         0.65356233669608   -2.08249669611288    3.69859550431515
H         3.27672812145884   -2.09997248004354    1.92443182890816
H         5.10469138274639    0.01153442993610    2.99465386498151
H         3.41034844598124   -1.92964676663988    4.93536426888403
C         3.19946685766842    1.47304481238559    3.27919109056059
C         1.97039061767582    1.47750231649628    4.12120937301960
B         0.75355514835677    0.56606114563205    3.27389792683779
B         1.38797889707039   -0.37151169891052    1.93988566744211
B         2.86458762051889    0.55128365538667    1.83799885215187
B         3.30107062449253    0.61550356247129    4.75849692232639
B         1.62905526803979    0.01730492864437    4.79560726604617
B         1.37651648730472   -1.17181373097814    3.50017021432727
B         2.83172061455514   -1.18264844386857    2.51764083717780
B         3.94699370506407    0.01107254406683    3.21766777985749
B         2.97329095976690   -1.04884930642995    4.28666243674683
N        -0.71484508889554    3.22531768428672    1.36217719616575
N         1.79641816909943    3.35672642806337   -0.09302438011941
C        -0.59762125470294    3.99125459192817    0.12475540705329
C        -0.66205538163687    4.09396816638181    2.53124703123090
C        -1.96115129328310    2.46969925627973    1.36198250190711
C         0.83685643147523    4.45523443677908   -0.14391972202674
C         3.15054967922071    3.88314307312672    0.00104749069541
C         1.68321415483526    2.49744293941409   -1.26839111215612
Pd        1.16282992365344    1.82025371770029    1.58411411726314

