21
CSD_code = ENSPAU | q = -1 | S = 0 | Stoichiometry = C2H8AuN2O6S2(1-) | MND = 4
Au        2.21028977368649   -4.22955956702737    4.09967044617943
C         2.03027666521423   -2.68820237378404    6.96189173301683
C         2.92279847524420   -1.78049835556368    6.09253076859563
H         3.01834759978424   -4.51066057508849    6.84436873284820
H         1.38922857216156   -4.67641001678162    6.69419924835788
H         2.29040361434238   -2.54369681039879    8.02133233485882
H         0.98884767711143   -2.39252987899778    6.81793811957897
H         3.95469007939693   -2.12581722281227    6.17918353022185
H         2.86671165523430   -0.74880814338272    6.47019258992759
H         3.26090771623376   -1.73733462124745    4.01932697214663
H         1.71647653031382   -1.34681918425776    4.46433152361538
N         2.17483012164164   -4.05813068122387    6.51652435176352
N         2.52548983260510   -1.90376685232430    4.70437721129828
O         3.06135529154958   -4.20444423379528    0.89424646389577
O         1.69895663796207   -2.38043714866645    1.85174105917081
O         4.05094539720941   -2.59546793439609    2.48099989773392
O         3.01440875617663   -6.69964667366236    5.56987047191094
O         0.62364929171371   -6.18214892312043    5.55547702191103
O         1.60605618994556   -7.46314654183686    3.69022112623029
S         2.84087629575261   -3.28712963930686    1.99654543513005
S         1.81765382672870   -6.49434462232539    4.74963096160753

