95
CSD_code = ENUGAX | q = 0 | S = 0 | Stoichiometry = C48H42N2O2Zr | MND = 6
Zr       11.56998500341639    2.71727675215273   15.27823529687521
O        12.38050250281741    3.47217368921509   16.91225367236375
C        11.84568559432181    2.35544892558302   11.76980233765138
N        13.22595273259922    2.40615304152331   13.76066523472058
N         9.70912518773939    2.66928479116353   16.46414923138819
C         8.52938566129556    2.16564680637135   15.89499432987332
C        13.06457510309291    2.34319420475309   12.46156613318196
H        13.96317320442983    2.29769956376936   11.83336028736114
C        14.52613371822675    2.23167261806490   14.25035856793526
C        11.86776175722529    2.42484224863082   10.26030089887121
H        11.67776623248325    3.45539526770735    9.93791628360372
H        12.85271375973991    2.13880831966528    9.88686302013037
C        10.60738597825044    2.31092871695186   12.41514634773819
C         8.15128681158263    2.58125777571469   12.14481757787836
H         8.11114110015212    2.87606245423751   13.18237978489346
C         9.38683726877935    2.26617602833986   11.58243634830331
C         6.15903228442115    2.31988258491899   15.44933317627208
H         5.22843160518125    2.85993932170016   15.54861924036990
C         7.07087406828160    2.13913514140299   10.05439685987649
H         6.17388283462426    2.09052154279118    9.45470520972782
C        10.72996929347796    5.37959527490838   15.05259240382001
C        11.94712124319300    3.81702458617193   18.06823475366572
C         9.45819429056780    1.88021860181068   10.23904202277852
C         7.00023190533414    2.52148430721189   11.38385135884881
H         6.04877789705424    2.77089720707278   11.82907708567179
C         9.50338675051820    5.20977143841756   14.36612687710884
H         9.51843253713272    4.78078841254887   13.36934495211267
C         7.30722594438313    2.83302655390576   16.02439475044426
H         7.27224585399645    3.77702803493252   16.54765546180781
C        11.96783382877025    4.90910669367057   14.48937087894068
H        12.85395717505343    5.41475938336488   14.88129899307717
H        11.97091339682553    4.86204092040045   13.39456037665922
C        12.91711980800954    4.38503799307424   19.02732088307871
C        15.00730006072699    3.07136066295774   15.25951037931520
H        14.36880094021515    3.86720684063211   15.62375739620953
C        12.47977471187825    5.13170043487044   20.12611128104349
C         8.55343110580072    0.95393157674375   15.19556939754475
H         9.48754392069481    0.41432764012963   15.10268983870346
C        12.19867387991408    0.59816899888787   17.26752361827880
C         8.29522674185645    1.81876124502285    9.48975475127372
H         8.34694785531025    1.51761471030030    8.45291911070733
C        12.23372158597664    0.55994098225185   15.81309841225228
H        11.51519855074489   -0.15849327115403   15.39331618231687
H        13.23996822329679    0.32463593814412   15.44719463173912
C        10.61754650970314    3.67901261108140   18.48435975815648
C        14.28212506943465    4.18935811040384   18.83030095288384
H        14.59738077479646    3.59444848942392   17.98782929092166
C         9.61133611871456    3.12344473798817   17.69420682453466
H         8.63810031561686    3.02634940042256   18.18936127296615
C        10.67311332418163    6.04236779441025   16.30043415986412
H        11.59790059600159    6.25062742594736   16.82732308146194
C         8.31214997192064    5.64306007474590   14.90502916064037
H         7.39384831534941    5.51457371065982   14.34699865397933
C         7.39828832390993    0.44486694013283   14.63263813623007
H         7.43440993750830   -0.49216839786110   14.09623961285216
C        10.79566219811627    1.51723287465194    9.66592044008770
H        10.78039728753659    1.60121127217518    8.57798382073235
H        11.01950945759263    0.47540839097119    9.91966984883888
C         6.19616494689760    1.12431941842531   14.75258304842567
H         5.29831045706904    0.72410031298368   14.30659590713248
C        11.00781852180909    5.33707970275929   20.31031491197725
H        10.68148690427597    6.16639717842668   19.67498823371299
H        10.78462671428028    5.59818913190351   21.34626451196769
C        13.35062738298218    0.92818243238511   18.00675557513944
H        14.27871553355052    1.09972965632346   17.47130992644489
C        15.20302263856291    4.72314054923745   19.71022050859254
H        16.25939695715659    4.55838819887628   19.55583139434826
C         9.47257814365483    6.46042419950110   16.83325005523999
H         9.45743397495592    6.97533715220595   17.78481381881113
C        10.26992979598624    4.06697695090697   19.90303004984230
H         9.19264197458000    4.21377287043641   19.99576258678163
H        10.55859637805595    3.25410515342239   20.57891197541908
C         8.28141264823953    6.25825316692177   16.15066729072180
H         7.34654705627561    6.60137900557453   16.56953800714636
C        11.03107868582692    0.32251790542734   18.00356613579280
H        10.13251031486379    0.01026541404063   17.48149981623962
C        13.41367558264887    5.66928718902687   20.99667699162474
H        13.07678183774513    6.24939255659760   21.84429509753435
C        13.32018762951675    1.03470206524555   19.38080878068449
H        14.21968805814724    1.30011602380938   19.91992851805561
C        11.00847942114933    0.42624619479425   19.37947607959952
H        10.09390982992362    0.20990200932083   19.91588979636615
C        12.14662962022179    0.79441423554311   20.08044742500011
H        12.12632459506935    0.87601972384289   21.15750638401291
C        14.76907793031720    5.46769479832837   20.79497505970080
H        15.48468084569001    5.88787773651009   21.48649496396077
O        10.46310238369693    2.27726238649290   13.69087159452198
C        15.35642207101484    1.21333487839455   13.76984747844250
H        14.98399475992715    0.53791878284908   13.01163175676424
C        16.62549322010912    1.03755520973983   14.28955073751822
H        17.24894416717694    0.23810342761523   13.91644459529867
C        17.09635765757471    1.87772879476935   15.28392050004552
H        18.08835648465513    1.74002348890227   15.68633664525119
C        16.28284389132251    2.89382298175258   15.76242235788584
H        16.65175287530402    3.55601072061641   16.53266083343711

