87
CSD_code = ENUGAW | q = 0 | S = 0 | Stoichiometry = C45H37BrCuNP2 | MND = 4
Cu        0.88707242900777    4.73022038644167    5.18331927760139
Br        1.05433167945834    4.96802871927080    2.91042724222103
N         2.51355463410229    4.58374847876390    6.35344973782036
P        -0.19496041237850    6.47749280096716    6.24705332124133
P        -0.38674920897799    2.81936269207506    5.66961069064665
C         2.45717322983511    3.82942653202242    7.42840391371621
H         1.84678243731985    2.93500625067741    7.36348834288003
C         3.31171841262128    5.67280538255296    6.37002029954176
H         3.34670669210262    6.23756541181521    5.44903336600764
C         4.04416791115470    6.04168160766699    7.46070586475775
H         4.67665295353152    6.91565150622572    7.42531654667617
C         3.96294361962997    5.27744084621098    8.64785113787705
C         3.13572124589379    4.12214374400817    8.62331489298564
C         3.01572947991036    3.32675197550106    9.78168191449221
H         2.37989363539414    2.45364408202972    9.74908610303644
C         3.69074829105737    3.67201198043507   10.91917113284309
H         3.60046191235911    3.06802983870157   11.80995875946111
C         4.50758403868535    4.81461955344534   10.94597071842387
H         5.02846029526145    5.06849405628415   11.85753419048470
C         4.64438630245735    5.60309676636260    9.83473589840214
H         5.26968132510490    6.48398341084152    9.85363297186580
C        -1.78023997473975    7.14163134174220    5.63158151919800
C        -2.01017161158881    7.02239194011089    4.26471376342747
H        -1.28788855634653    6.51720963743337    3.63836430291047
C        -3.15740520727502    7.55571382347313    3.70658416892482
H        -3.32767918936616    7.46525731300155    2.64440864630340
C        -4.08165491898669    8.20169359780263    4.50922002071332
H        -4.98373238551649    8.60998836337566    4.07743066180762
C        -3.84642987316991    8.33494410309579    5.86864776206870
H        -4.56050358359391    8.85318869324585    6.49286053936351
C        -2.69470477830738    7.81876177908034    6.43169748522096
H        -2.50609292674315    7.94733493993891    7.48848543561517
C         0.74879426184527    8.03932007074763    6.18277952620047
C         1.45361995624562    8.28672251044623    5.00786765012520
H         1.44016687806309    7.55667560895185    4.20909543493939
C         2.16350525361526    9.46365145441999    4.85813192645727
H         2.71014540603364    9.64770229011769    3.94533189355300
C         2.17246928967796   10.39961690029071    5.87902004728386
H         2.73062710544743   11.31759611122390    5.76739881112821
C         1.45701862909348   10.16357422160744    7.04219873869428
H         1.45209678862017   10.90047797453964    7.83273922262930
C         0.73976247086097    8.99147497956239    7.19611867286946
H         0.17506355097712    8.81900433405722    8.10195209136012
C        -0.45582655671598    6.19267412691474    8.01871115977928
C        -1.64921404883457    5.64673319809762    8.48923900298404
H        -2.47857483574063    5.51040788049264    7.80836703585979
C        -1.76762136886778    5.27533776010210    9.81634969354981
H        -2.70014667452622    4.86452518487780   10.17599518396621
C        -0.69104286735615    5.41116640101039   10.67906516286833
H        -0.78489197992339    5.11420271416934   11.71323343280012
C         0.50981317926932    5.92007570418434   10.21016171736622
H         1.35773356784995    6.01303061597260   10.87372397803823
C         0.62879776912804    6.30508375404030    8.88853412847717
H         1.56501776114192    6.70533180927954    8.52239321466171
C        -2.10430746148698    3.30977874615893    5.32267317790787
C        -2.38368525967872    3.78913355641083    4.04329682578631
H        -1.61540453143473    3.77019291843783    3.28158447678206
C        -3.63880816444157    4.28441240548788    3.74842947704547
H        -3.85132624774951    4.64202076812987    2.75231087751830
C        -4.61728324353367    4.32807982663251    4.72842328325281
H        -5.59533576009204    4.72508906937692    4.49989654736837
C        -4.34074451981811    3.86023231428876    6.00217710573847
H        -5.10436300960450    3.88927184060488    6.76701953463808
C        -3.08999137520581    3.35073085902778    6.30298041117854
H        -2.88107684153446    2.97716712726721    7.29671054477536
C        -0.03687165507394    1.65168188185824    4.31785523511246
C         1.29527411465877    1.52598487847163    3.93575385333041
H         2.04949242197755    2.12230154088140    4.43577000567395
C         1.64703704611555    0.66868048918981    2.91013558040550
H         2.68000871060656    0.58485445138468    2.60720288924633
C         0.66898716109506   -0.06682885600808    2.26217267553127
H         0.93942934999962   -0.72999532131330    1.45379735199337
C        -0.65893821123950    0.05407836145977    2.64054601311536
H        -1.42070268355095   -0.51783969096701    2.13032741498072
C        -1.01728643451927    0.91075564958359    3.66467968314954
H        -2.05535052488143    1.01413765882003    3.95187600616739
C        -0.59714265775959    1.69355376518748    7.10077088276834
C        -0.73019807096310    0.31396474915776    6.99731268138453
H        -0.74199251787138   -0.15772212277142    6.02515348348354
C        -0.84897200775498   -0.45488505725185    8.14169374165214
H        -0.95684321043728   -1.52645533632647    8.05569637910559
C        -0.83102870236839    0.13921807086717    9.39322385093486
H        -0.92531781158968   -0.46798009121939   10.28152065346159
C        -0.68438784331572    1.51266425000934    9.50307980971379
H        -0.66169081082418    1.98534805328540   10.47487083648013
C        -0.55884606653338    2.28298202418642    8.36300045996367
H        -0.42950461468735    3.35458406013190    8.44378989629370

