86
CSD_code = ENUKUV | q = 0 | S = 0 | Stoichiometry = C37H44AuN3O | MND = 2
Au        7.52186994483730    4.50587518723470    3.58344796613717
O         5.08499291269114    5.29874230063501    6.93962434867631
N         5.32553502738759    6.55240033493395    6.49268179106170
N         9.00058250213788    2.80039999972390    1.52635149203117
N         9.38331642412974    4.88961622302303    1.27404470276653
C         6.38547845049301    5.08363783527841    5.10927530840535
C         8.70027065679089    4.01036178274186    2.02807134181765
C         6.08142396485590    6.44308995129312    5.42897902636525
C         5.71928529181534    4.41343931045873    6.11207342858605
C        10.10565356776648    4.24078748426831    0.30672631157360
C         9.86350163322719    2.91777233135167    0.46638831309141
C         6.53240773130352    7.65247461561533    4.68718559495310
H         6.15798996026806    8.54478153251202    5.18150598618787
H         6.16290156379406    7.62547348635136    3.66236070722278
H         7.62093936749258    7.68895663042542    4.64741978919529
C         5.57922780236981    3.00714533526332    6.43962323961880
C         4.86036197092304    2.63477359151249    7.57926563012570
H         4.42072712533262    3.40578532593652    8.19339530234332
C         4.71317517959517    1.30480202246094    7.91751892405264
H         4.15401844428349    1.03498071365185    8.80234018712508
C         5.27903141270360    0.31635012485554    7.12844382845012
H         5.16403491125030   -0.72484819158598    7.39418002036050
C         5.99240311495147    0.67341712814893    5.99610350299470
H         6.43692687151950   -0.08863571505931    5.37178775499927
C         6.14192487368109    2.00211196012812    5.65192075995827
H         6.69869736213888    2.26940289443978    4.76518609844181
C         8.48709915873691    1.57637841849618    2.03480298282586
C         9.24569518691895    0.86139148714460    2.96433299475913
C         8.73169507777962   -0.33580404633219    3.44188750926576
H         9.28920964945299   -0.90525909962565    4.16826948409243
C         7.50692521156004   -0.80392043258236    3.00475464083313
H         7.12550693188671   -1.74279709284264    3.37851803051821
C         6.76298560942316   -0.07171247677173    2.10045427049331
H         5.79930007097223   -0.43889189270444    1.78466284133995
C         7.23678974798352    1.13379063100621    1.60041076330327
C         9.32343859203339    6.29448202237810    1.48131981630025
C         8.37317677433304    7.03905435817960    0.77961739059730
C         8.29935550588815    8.40235362540426    1.02923062836597
H         7.56475020498847    9.00111725227953    0.51442528690621
C         9.14818620742745    9.00214542651104    1.93939977939599
H         9.07383771277511   10.06298014133396    2.12526141404768
C        10.08378608263176    8.24821167633610    2.62075427466766
H        10.73446673042390    8.72808210955612    3.33497504088409
C        10.18688672229971    6.88002920786674    2.40866394731938
C        11.19208140239555    6.06177841721559    3.18400019374301
H        11.12692993487858    5.01572707675285    2.86785067360895
C        10.87360452413921    6.11377088123348    4.67972455076037
H        10.96674493631709    7.12623684447179    5.06338907342417
H        11.55775017689711    5.47277323661906    5.23088506701576
H         9.85595654737945    5.76890210300938    4.85915427707258
C        12.61739947266712    6.54517157171077    2.90682950700664
H        13.33284218669514    5.91042905188462    3.42470226881262
H        12.75646534469697    7.56652498105267    3.25067620191245
H        12.83302458920646    6.51041814231900    1.84051123392360
C         7.41427595328412    6.38183285800454   -0.18510055738814
H         7.72967031026197    5.34750191112519   -0.35799908920547
C         7.40145990740417    7.08968798277976   -1.54107217703014
H         6.98945423480859    8.09146397273170   -1.45858988799871
H         6.78937818704596    6.52987429993802   -2.24476474628345
H         8.40978506812199    7.16425940386537   -1.94363087446406
C         6.01358356975206    6.34942283267536    0.43178060506150
H         5.32089790700276    5.83852216435375   -0.23315430289814
H         5.64727508669655    7.35842627194723    0.60381895630685
H         6.03350360536926    5.82337390793945    1.38578608748489
C         6.40094453604890    1.93799726760259    0.63357168418325
H         6.95633177207483    2.83176427395171    0.33190282140028
C         5.11307512209738    2.40177159493270    1.31773935296136
H         5.34777636966762    2.98814558964904    2.20491054335540
H         4.50562651948649    1.55324973762371    1.62012705830147
H         4.53015817046267    3.01974457139128    0.63870953760716
C         6.09519699828262    1.13107226733768   -0.63008786790313
H         5.48733689175612    0.26040093011777   -0.39994432863380
H         7.01648095282140    0.79165540981199   -1.10015418655540
H         5.55126730357785    1.74744248371888   -1.34229812999733
C        10.55647329236585    1.40142767024250    3.48558162461294
H        10.89835599706697    2.20996665880780    2.83063323674739
C        10.33143563818122    1.98625100947090    4.88312424461198
H         9.97534459806928    1.21840135481172    5.56528923847975
H         9.58665192580062    2.78039060793164    4.84861396073343
H        11.25992805256808    2.39645345594368    5.27373745825391
C        11.65385453671932    0.33651024953838    3.50810498852615
H        11.45086186872670   -0.42374399651867    4.25692955720676
H        12.60944790324661    0.79712884595517    3.74888183262753
H        11.73908467291134   -0.14762040965875    2.53721953730543
H        10.22350436637093    2.06596667145195   -0.07259453672937
H        10.71761032142881    4.76470033303210   -0.39803714041152

