88
CSD_code = ENUREM | q = 0 | S = 0 | Stoichiometry = C39H38BN7NiS2 | MND = 5
C         7.35373344795203    3.53448786088539    3.02476804266382
C         5.85218415812607    5.83037597682909    3.08677580389951
H         5.88597610863057    5.80058166795373    4.17496470128625
H         6.79157108495795    6.22930855797521    2.70114470628036
C         4.66959426342031    6.58463215294984    2.58035626784818
C         4.62413755506322    7.01142954034931    1.25817515138622
H         5.45553679013565    6.79569643790240    0.60261339592678
C         3.52498492803392    7.70158793720344    0.78208607779695
H         3.50038508052940    8.03001646936179   -0.24669177235247
C         2.45713493249636    7.97158061297731    1.62171132350738
H         1.59870553176934    8.51145809006587    1.25007252061174
C         2.49291257292545    7.54571578938270    2.93829871532271
H         1.66177142272436    7.75260325258728    3.59663305973926
C         3.59205134704553    6.85323937313243    3.41406158972939
H         3.61951939194246    6.52059628200759    4.44142793792192
C         6.92864376236508    1.33478290930838    2.21132080931661
H         5.92973436670098    1.35430441668104    2.66174138387156
H         7.36944615488424    0.34901661255990    2.35105378057726
H         6.82933387420320    1.53061760672156    1.13813926029870
C        13.02604031688074    0.56327929036122    6.97415942258342
H        12.30043723909598    0.01875896818269    7.57523575691787
H        13.74240784351252    1.04494909252151    7.63411106108139
H        13.55220097489832   -0.15372218452769    6.34655045221671
C        12.34834512721615    1.59289329281235    6.14437652495848
C        12.56836530201042    2.95692300342072    6.13099547895031
H        13.28383822984091    3.50916108349153    6.70526111734287
C        11.68032135267664    3.47091625537669    5.18136201308501
C        11.58355030155388    4.85197707423935    4.71463091197773
C        11.59488827884929    5.11857337841202    3.34798815408845
H        11.68602515004062    4.29485690590298    2.65247354952617
C        11.51024540478062    6.41943413951491    2.89107034209482
H        11.51379658366920    6.61817702158498    1.82901272602284
C        11.41969801748118    7.46641093236071    3.79316539964019
H        11.34571119093225    8.48358851987298    3.43671508029133
C        11.42584927588747    7.20875691547037    5.15374753003068
H        11.35803686670475    8.02539823322569    5.85797558539307
C        11.51162850366807    5.90850201213282    5.61565908441929
H        11.50254136438260    5.70392333594093    6.67635976636826
C        11.89470949822473   -2.31365250024862    2.91716185233203
H        12.81677677669173   -2.07849065796197    3.44591246324228
H        12.13197339974268   -2.92211382150037    2.04867401320517
H        11.26018476294139   -2.88812646643620    3.58903228929519
C        11.21197360855095   -1.06785442199443    2.48119211557070
C        10.91083777474532   -0.65537708331593    1.19625173198912
H        11.13410238465748   -1.17101405007651    0.28467898711670
C        10.28880264209489    0.59195908209714    1.33992490098187
C         9.77552967910884    1.49956143360434    0.32307018473508
C         9.32253668466292    1.02632941091478   -0.90598274040936
H         9.36069954102652   -0.03181472151146   -1.11896219584670
C         8.80360423993901    1.90315402941629   -1.84082915972601
H         8.44909079979005    1.52714669251759   -2.78978613948230
C         8.72752800719647    3.25816388175268   -1.56264712804752
H         8.31393381615327    3.93760109810170   -2.29344392232244
C         9.18479166340802    3.73871763863474   -0.34589187053069
H         9.13168953108886    4.79495304108277   -0.12463272627864
C         9.71165337392885    2.86762512129162    0.58683940578170
H        10.08397667145938    3.24411765966443    1.53971680428312
C         9.12847420956004   -2.46415907755526    6.09806248426995
H         9.34496532537505   -2.95360828462771    5.14893045947504
H         8.38798742484683   -3.05367179093712    6.63204547360449
H        10.04721828547244   -2.43467729778016    6.68030064947196
C         8.60471630785846   -1.09215300122176    5.86947507543989
C         7.33507779792059   -0.60029712362790    6.10404651460961
H         6.50135835742306   -1.12589188264503    6.52358110815932
C         7.38148309309540    0.74417026874610    5.70934995953139
C         6.34003730689665    1.76183737218785    5.78625738057927
C         5.01457142817316    1.45846874440240    5.48897096172497
H         4.75318648147098    0.45470616292402    5.18487094196079
C         4.04232248114310    2.43806269275938    5.56406955952469
H         3.01719069227110    2.19962826535863    5.31991469175214
C         4.37956879994249    3.72499494242079    5.94888766768561
H         3.61317869214112    4.48406267946492    6.01439593394775
C         5.69578509340484    4.03257986224143    6.25281025087546
H         5.96372178412121    5.03354124522970    6.56272701217198
C         6.67332588784873    3.05957949079257    6.16735156399245
H         7.70329692824634    3.29331472131663    6.39778397741765
N        10.96164288077136    2.46440312555075    4.67702221852681
N        11.37682709432237    1.32224523993514    5.25491028408994
N        10.22341972855380    0.88456754446614    2.64019298001179
N        10.77869988171276   -0.11598984761245    3.32904052569519
N         8.60297722592298    1.02547197759293    5.25940949553531
N         9.34321172775891   -0.08789117227890    5.35700351032677
N         7.76565579441732    2.33027549777905    2.81740684338910
S         8.49842508272937    4.52358855242113    3.80801547674644
S         5.76402454923613    4.08773239767738    2.51680194310677
Ni        9.38462435120468    2.37578437593015    3.70229538811879
B        10.80002793511740   -0.05664937410062    4.87135698243062
H        11.43981841764061   -0.93610048999952    5.32433110728995

