84
CSD_code = ENURUC | q = 0 | S = 0 | Stoichiometry = C35H39BN6NiOSi | MND = 4
C         1.36990424637133    1.70102655863722    3.40544365920292
C         0.97245288613569    2.69374135711093    2.42269525217665
H         1.04567752726137    3.70148194425437    2.82003095776352
H        -0.05481298199927    2.49889957305853    2.11068438195866
C         1.93890209568154    0.88142118134167    0.09003421345116
H         2.72689959275202    0.66987209268762   -0.62606496963088
H         0.99092190960977    0.80047918226130   -0.43530129616872
H         1.96496680153015    0.09901507516219    0.84248160060570
C         1.52945365624498    3.96401799508527   -0.29549279968101
H         1.55665849218891    4.94268273989868    0.17322502437106
H         0.50908674539835    3.78297590201058   -0.61841222854095
H         2.14834370793362    4.01003484065367   -1.18503636852668
C         3.90302707164652    2.98608228902931    1.50715096378811
H         4.05538236026711    2.52613408312754    2.48005937107963
H         4.06012748305549    4.05557672457408    1.62242194961082
H         4.67078475223839    2.60831022758009    0.83857723132407
C         6.32546633445318    4.97778620988230    5.55255395054530
H         6.70552105732744    4.64349575236831    6.51620601684515
H         6.38768991522684    6.06190886861677    5.50824243877650
H         6.95856961985953    4.55401221734716    4.77560615124305
C         4.91350816703079    4.55285051607959    5.36665381690605
C         3.79422443395305    5.35186901722188    5.23049250340308
H         3.75393599931712    6.42140290958574    5.26632233152346
C         2.72214627924819    4.46388358903945    5.08584610039257
C         1.29865825136542    4.76220635719645    5.01166563156852
C         0.82993083087830    5.92912354128425    4.41162934321186
H         1.53262566143650    6.62583503774282    3.97828794387110
C        -0.52775075537604    6.18506571809018    4.35455088579044
H        -0.88402264386897    7.09085083141977    3.88527013699260
C        -1.43190160945789    5.28471260179516    4.89439400469387
H        -2.49142292660186    5.48861726093479    4.84586392636519
C        -0.97357944337152    4.12738302065283    5.50415461983827
H        -1.67585345208370    3.42954567652150    5.93650248128665
C         0.38164076810959    3.86972825163203    5.56800834378955
H         0.75277418777891    2.98163945365283    6.06963865036308
C         6.47514371079119    0.88296591269589    8.25729122038894
H         7.20878795582273    0.48101698009035    7.56019190782080
H         6.60210756829316    0.39415975702222    9.21981005995809
H         6.66643244609253    1.94814561170826    8.37453356510383
C         5.09439907584440    0.64556470453378    7.75945456580018
C         4.09696468183260   -0.10924579239276    8.34143297966051
H         4.15239916928959   -0.63834146320322    9.27083379316990
C         3.00036297758278   -0.01180916997740    7.47130120446935
C         1.68126558532542   -0.61284649456104    7.59967774500822
C         0.61980281135337   -0.13798933396206    6.83168746368327
H         0.79401678934000    0.69302672113752    6.14949111591701
C        -0.63489231978704   -0.70370497302261    6.92795642305342
H        -1.44423717245286   -0.32862459265837    6.31781196034521
C        -0.85465368887228   -1.75266763402019    7.80640660721729
H        -1.83578178600373   -2.19803068475331    7.88598217222965
C         0.19028281987116   -2.23036867729495    8.58050663533951
H         0.02255804693453   -3.05020972121092    9.26458935094715
C         1.44914478706632   -1.66919271206592    8.47930115798071
H         2.26044269486260   -2.05847722959964    9.07597336715159
C         7.85455756080394    1.24591080085458    3.78094216747531
H         7.87555810095749    2.32900927394783    3.67292159139509
H         8.52594729294974    0.80515319190650    3.04860874326826
H         8.21419940685351    0.99991706233650    4.77873595195911
C         6.47825121469519    0.72423046468967    3.57124254763010
C         6.04549651137026   -0.21991634303331    2.66321839939925
H         6.64450738004115   -0.76713780866020    1.96397614792081
C         4.66505543279014   -0.34401651315956    2.88807730194716
C         3.74445597980110   -1.29685769117144    2.28665771072717
C         2.66799110994726   -1.78046745120044    3.02862127889555
H         2.52685725508795   -1.43025684007717    4.04145025926419
C         1.79893282962687   -2.70194542764502    2.47761634793242
H         0.96293462725236   -3.06405898993859    3.05813430217153
C         2.00196444137511   -3.16680791074419    1.18794733651998
H         1.32353968077654   -3.88979945407387    0.75828176569461
C         3.08162740670592   -2.70703182655903    0.45128816484589
H         3.24501968272277   -3.07248254486739   -0.55274249597869
C         3.94879158905587   -1.77802704979953    0.99493742364381
H         4.78189007910941   -1.40985868278077    0.41390136783422
N         3.19125404695346    3.21337834331788    5.10745088426463
N         4.51483486176825    3.26925292997076    5.29164520400382
N         3.34038865697940    0.75896782240450    6.43628034469327
N         4.60640127061374    1.15558865205596    6.61072925383318
N         4.30095999517929    0.50155963732853    3.85034558746245
N         5.40301703001205    1.13768529296453    4.27318567351131
O         0.98012207669150    0.57610551559715    3.59392733509080
Si        2.15074148243687    2.59652737708660    0.88168983415891
Ni        2.45246827505483    1.41652170009552    4.74564475063540
B         5.34756680502235    1.99417389597628    5.54759263723836
H         6.43028474263337    2.27914276717558    5.91457266713072

