86
CSD_code = ENURAI | q = 0 | S = 0 | Stoichiometry = C39H38BN7Ni | MND = 4
C        -1.13894062970237    5.14070927005676   19.51639737053369
H        -1.32888816339049    4.48566222671926   20.36695771146042
H        -2.08983095716223    5.54807041013511   19.16253523219211
H        -0.49985864730961    5.97163863078378   19.82521144039025
C         0.03040887549095    4.61823567447493   17.38597541404390
C         0.38463630296300    5.82189647807676   16.58100965246612
H        -0.03571332326909    5.70184076264484   15.57943802129882
H         1.47368099775194    5.84124765942549   16.48744373274509
C        -0.12179060320059    7.07600006451010   17.23425345632537
C         0.69560150515242    7.80469388139835   18.08909191436954
H         1.71302932089126    7.48336775973135   18.25680326442141
C         0.21220500219427    8.93282080175734   18.72801544948111
H         0.85760919840369    9.49062056222694   19.39061832794679
C        -1.09323676724495    9.34468979742341   18.51967592731982
H        -1.47080803760546   10.22466386862592   19.01913575567852
C        -1.91179881213398    8.62568255054841   17.66454524233885
H        -2.92947497375027    8.94598392852078   17.49436338186002
C        -1.42986710248411    7.49691012419354   17.02627261859651
H        -2.06829460292023    6.93530591586159   16.35910906116206
C         2.11296933143283   -2.12590287825672   17.35261655514878
H         1.88702456347593   -2.37786841860970   16.31804738105617
H         1.95595216396286   -3.00571892733573   17.97130525890477
H         3.16133449886430   -1.83794230776198   17.41024006888819
C         1.23873011261119   -1.02255635333522   17.83097481919337
C         0.36608006534052   -1.03391374788504   18.90037253066889
H         0.15578129221165   -1.85487983722503   19.55542288125740
C        -0.20856094481274    0.24404240581163   18.92263620531439
C        -1.21987141428208    0.76095362548182   19.83443974955215
C        -2.12456930518631    1.72599461565118   19.39790015959215
H        -2.06670597122928    2.06974621675345   18.37144308539843
C        -3.08891559928099    2.22432443680858   20.25207845886525
H        -3.78791969968945    2.97084944031556   19.90165120231283
C        -3.16867691261000    1.75995014522448   21.55510839025816
H        -3.92414509017788    2.14638159077441   22.22403934087786
C        -2.27774162115362    0.79520547464986   21.99682056810908
H        -2.33810834466727    0.43122228063221   23.01261772462375
C        -1.30969645598786    0.29708730354543   21.14515175316356
H        -0.60926710589899   -0.44557350422850   21.49782096833104
C         1.79407433928508    0.20931046075481   12.97878061500517
H         2.85334862890382    0.44311797801930   13.06841497354632
H         1.51612735887408    0.23460094738246   11.92837780269555
H         1.63830864457048   -0.79791047007673   13.36082034664222
C         0.97126645190848    1.18986444150015   13.73454523582605
C        -0.00159063785212    2.04312298461983   13.24957135800245
H        -0.34128544764681    2.13126504779173   12.23760361233794
C        -0.47625234300391    2.73522613305048   14.37073831076506
C        -1.55204804935363    3.71397818733751   14.44931485791896
C        -1.79001202478038    4.61650059473701   13.41529498408971
H        -1.15792768328659    4.60267160481145   12.53945364830616
C        -2.81892951667336    5.53501799152724   13.51510995877774
H        -2.99492205472206    6.23453342877926   12.71061803009347
C        -3.62345128599721    5.56354733792766   14.64293829785642
H        -4.42700702383828    6.28233112968125   14.71565034739519
C        -3.39727507537195    4.66457358958447   15.67415161717562
H        -4.02870629081995    4.67934608713899   16.55134726698896
C        -2.37141130626438    3.74503293065602   15.57687201019160
H        -2.19989821744781    3.02009507428636   16.36419221539238
C         5.11210859158905    1.15379178328834   15.59849246185082
H         5.07541979070430    0.12286924977020   15.94591148162041
H         6.14103831328627    1.50195235518785   15.63645290869587
H         4.77290131500130    1.17318218562656   14.56388014491065
C         4.25886437769529    2.02737298503329   16.44648310405971
C         4.62364214113030    3.14647547726480   17.16835327954028
H         5.60456723089751    3.56722731173822   17.26008166775945
C         3.44332912449065    3.58476589218293   17.78804401405977
C         3.28054981210121    4.67288033435172   18.74199397934326
C         4.07498749916879    5.81540160886984   18.67280934358496
H         4.79508752828563    5.91702323359088   17.87355851622539
C         3.93855376411853    6.81981529226643   19.61353954900913
H         4.55826821390833    7.70333754726133   19.55057330365599
C         3.01058269372388    6.69664334095178   20.63522424515463
H         2.90880739466846    7.48081318300030   21.37148890938618
C         2.21647636193357    5.56334564757427   20.71036336434043
H         1.50064132066344    5.46063785973448   21.51376477447306
C         2.34955772226835    4.55702423535922   19.77315822486274
H         1.74719909932285    3.66068791425855   19.83514759326807
N        -0.51904417745994    4.39141064121878   18.47125657654906
N         0.30393679324611    0.96701865559904   17.92546845319765
N         1.18041884105113    0.19921202197465   17.26481263137669
N         0.19116874169445    2.32135817862656   15.44927134359534
N         1.06324694299872    1.38680363598476   15.06353664394179
N         2.44111304182195    2.78030711111594   17.43671853559578
N         2.93721366410776    1.83730096047932   16.63042055682635
Ni        0.23748702955711    2.85519186811891   17.41770220527992
B         2.01724143480270    0.73020160817649   16.08214179596986
H         2.63786478111167   -0.13621952633186   15.57991482664282

