84
CSD_code = ENUSAJ | q = 0 | S = 0 | Stoichiometry = C39H35BN6NiO2 | MND = 5
C         4.75513342179511    5.57663483872113    0.37202676622708
C         4.81473532233449    4.70466575979337    2.73813366640561
C         5.12226131561236    3.73276276014939    3.88421667631330
H         5.00566281334257    2.68811068196785    3.60467335764858
H         6.17667945817006    3.91645063272302    4.11782058319453
C         4.26420546465326    4.02708615444662    5.08437068390518
C         4.30210895948952    5.26474788351954    5.71422135747164
H         4.94619656595185    6.03938263627375    5.32837639899731
C         3.50842386947733    5.51159511348358    6.81952987331005
H         3.54362131034181    6.47911436949950    7.29809117119406
C         2.67431675017336    4.52372178952656    7.31496010349859
H         2.05686070618881    4.71695376035554    8.18011664332345
C         2.63384449215044    3.28697639335941    6.69434368350646
H         1.98554016418543    2.51013641913771    7.07394490705756
C         3.42124526825238    3.04222861464229    5.58346087282775
H         3.38389346608728    2.07366211709779    5.10488444512801
C         1.20841807578563    0.03053790314120    2.88892693910451
H         0.84511863212060   -0.39712793917995    1.95570446351972
H         0.41844336159180   -0.03021040177913    3.63279300751414
H         2.05621204229900   -0.56530964390203    3.22337601764785
C         1.60563247785101    1.45050814074299    2.70062433449317
C         1.06046840807183    2.58182234991943    3.27706577008508
H         0.23159209434861    2.63031644433195    3.95306869975273
C         1.80233338839318    3.65461814287798    2.76627783209392
C         1.61694435497407    5.08165269170110    2.99378492130753
C         1.86359268311402    5.98677856323157    1.96366401626704
H         2.15956603533028    5.61350551543534    0.98977775237300
C         1.71687986025860    7.34317805374355    2.17593842470111
H         1.92140020026831    8.03784868150964    1.37438771431013
C         1.31003848968964    7.81151631979793    3.41429363660471
H         1.20219068691056    8.87307273864106    3.58269873730178
C         1.03777739361929    6.91613186718146    4.43499142429827
H         0.71513635556868    7.27793839112993    5.40063570722689
C         1.18502917397003    5.55814459735134    4.22766995343538
H         0.98904786227339    4.86176578928253    5.02884543385596
C         2.02292563712748    0.12805288084554   -1.80064197200615
H         2.70259112583016   -0.70717310589859   -1.63982855036565
H         1.63163351130834    0.07319463120797   -2.81301260384686
H         1.19712981081569    0.03222451977950   -1.09740944007178
C         2.72524032456162    1.42364558196043   -1.60915706901644
C         2.90441871104297    2.44908686332741   -2.52017485089379
H         2.57752651783851    2.48254458387287   -3.53958170422563
C         3.62920373510829    3.42786033399270   -1.83362219670279
C         4.16676330399011    4.69103289076312   -2.34177551899666
C         3.33247772703511    5.66952010848167   -2.87125734448562
H         2.26598324694861    5.49848128892179   -2.90290641149976
C         3.86553906199187    6.85770706336776   -3.33593029512459
H         3.21215309050518    7.61926817055229   -3.73620257731609
C         5.23298112548606    7.07505645402439   -3.28717418266476
H         5.64472708070033    8.00563394960682   -3.64899836380116
C         6.07132158549148    6.09678074443637   -2.77972542932272
H         7.13890603770647    6.25980346618097   -2.75015910805695
C         5.54268955057855    4.90975411757747   -2.30719913135572
H         6.19129263729269    4.13477158708094   -1.92326520772569
C         5.35111662153153   -1.38460323706838    1.50102915844092
H         4.54319401547712   -1.57057544711738    2.20659449855299
H         6.20142319331570   -2.00690197326397    1.76730913101291
H         5.00416434866524   -1.66941566130193    0.50913792378267
C         5.75642835347357    0.04511674242576    1.52514446018144
C         6.99915570542026    0.57857397912387    1.80732827025501
H         7.89616828142894    0.04180300257362    2.03980628484259
C         6.84481456654439    1.96544171307541    1.68347738757792
C         7.84293829542580    3.00670034594369    1.89409804139023
C         7.80624010621286    4.18231935759151    1.14797199157851
H         7.04948389138456    4.29679875520887    0.38177403380929
C         8.73409959033228    5.18183690794437    1.36837888666701
H         8.69215058215937    6.09132981568642    0.78711995377549
C         9.71774025115547    5.01696777723512    2.32977105989006
H        10.44349484523725    5.79782957509361    2.50300703165946
C         9.77049352165828    3.84530644515174    3.06731139366143
H        10.53815556694033    3.71312659718968    3.81617354201046
C         8.84026577683172    2.84555859606676    2.85373923815463
H         8.87362611745748    1.93994195570568    3.44193030587697
N         2.61900415865060    1.84368913544979    1.90550996249316
N         2.74180230495072    3.17801962824828    1.94772808015532
N         3.30856016291228    1.79583858443074   -0.45610554811178
N         3.84959511864160    3.01279956628190   -0.58780748763158
N         4.92191001148927    1.06998687544213    1.26565150510335
N         5.57972470725688    2.23406726940829    1.35358810058624
O         4.88887379329981    6.68624637303382    0.16574706768763
O         4.77710209494090    5.88377662186551    2.93870341778336
Ni        4.43972419004619    3.95553668281567    1.08091489895226
B         3.43250069372745    1.03471804894883    0.87612994661164
H         3.03639438741361   -0.07139829315888    0.78616344483572

