86
CSD_code = ENUSEN | q = 0 | S = 0 | Stoichiometry = C36H39BN6NiO2Si | MND = 5
C        -0.98651496015234    2.76990123139042   21.58636212729485
C        -1.54098181061168    2.67069577175217   20.21230840967078
H        -2.42725092404298    3.28260330308931   20.06706738301653
H        -1.82230326163300    1.62716380645167   20.06383693322961
C         0.77108396416087    4.66982340800676   19.56878676578112
H         1.50811768077219    5.00453917395696   18.84510500699354
H         1.28871888006117    4.48265976429434   20.50460191131752
H         0.07473407570731    5.48749614355136   19.73328377693289
C         1.04598253137864    1.60652510555684   18.87410667690459
H         1.92597483124124    1.83047879237609   18.27889445705965
H         0.55883204246042    0.74433015024435   18.42687552036369
H         1.37826807098718    1.31930738170253   19.86727405718945
C        -0.96814681542610    3.41728330069725   17.28742364352900
H        -1.60889966074024    4.29198138712171   17.32367011273847
H        -1.57443946512876    2.57357177714939   16.97294334047522
H        -0.22301304957425    3.58856980806825   16.51816428816592
C        -1.03869054591015    4.61048933848062   22.96070188130219
C        -6.70773472766876    3.18409308154163   25.86590791842581
H        -7.33789721091676    3.66779863636086   25.12140939275187
H        -6.97812734850403    3.55599253496727   26.85069144101584
H        -6.90060940028965    2.11329618502822   25.82877584045070
C        -5.27293209595965    3.47124252441293   25.60474257471250
C        -4.36442387740942    4.10579226918520   26.43002759672335
H        -4.53767389544443    4.48138218274618   27.41793734822569
C        -3.15991262608723    4.11773239643134   25.71526642774226
C        -1.85843947030701    4.61534586097230   26.14310582319099
C        -1.75655737449320    5.74534420564765   26.95107762065200
H        -2.65289686965814    6.26993457724295   27.24827312454214
C        -0.51683470955463    6.20455718085655   27.35419689808085
H        -0.44708279636133    7.08482981022438   27.97696533221175
C         0.63527061192742    5.54328572080429   26.95976749026819
H         1.60218273585377    5.90693039942684   27.27526916022844
C         0.54316764439012    4.41392925403459   26.16345965860383
H         1.43757906168096    3.89214448715190   25.85585636058038
C        -0.69467068230167    3.94886523907638   25.76110900454976
H        -0.76824800686788    3.05094131451334   25.15695228491066
C        -7.54801550659115    3.28867386230704   21.30841342438739
H        -7.56177484569291    2.21452843798472   21.13072177926614
H        -8.15596510632236    3.77726683795464   20.55144907512676
H        -7.98869103204323    3.47293189169855   22.28664809605462
C        -6.16009277952670    3.81742315328508   21.24775806705836
C        -5.63950180520754    4.77088020792844   20.39443071207380
H        -6.15631068987231    5.31402653062808   19.62946651826768
C        -4.29782228908964    4.90894585686462   20.77420051632888
C        -3.31830019192367    5.84990266829589   20.24130885586755
C        -3.20880029045422    6.07186865682792   18.87127529047921
H        -3.84188404451625    5.51956555300350   18.19124571861785
C        -2.29455359522398    6.98786361504919   18.38509940918748
H        -2.21316955164452    7.15519512542670   17.32064620108411
C        -1.48235918420794    7.69262436419570   19.25874418598676
H        -0.76749412244284    8.40600026192832   18.87586745497747
C        -1.59504344009800    7.48618818065821   20.62436899565388
H        -0.97083848919552    8.04156837082987   21.30918051432199
C        -2.51142067085146    6.57455233135552   21.11387851342310
H        -2.63500635034651    6.43353997144290   22.17846121637237
C        -5.94368728253558   -0.52191609576737   22.50935938456448
H        -6.47081223922585   -0.40292239898726   23.45428682517499
H        -5.92569130340395   -1.57682111113070   22.24809092028287
H        -6.49470662206623    0.02183338013801   21.74414770431532
C        -4.55019914502931   -0.01582405742979   22.61358320472567
C        -3.37615018625604   -0.72616029651752   22.45343707964423
H        -3.26684510944740   -1.77147977724122   22.24745102192156
C        -2.35080080339380    0.20210249061929   22.65903602279879
C        -0.92040741595577   -0.09225962341135   22.70868236486845
C        -0.31398192281339   -0.83532682795793   21.70186693710565
H        -0.90081980257002   -1.16885877012729   20.85719614206516
C         1.03595536763988   -1.12534313512476   21.76945089692002
H         1.50428993600768   -1.69136997973755   20.97678902444839
C         1.78832788355086   -0.68700130191504   22.84581548285472
H         2.84413480295637   -0.91104635710765   22.89358590683258
C         1.18628858080703    0.03904039636643   23.85987044973166
H         1.77083686909884    0.37784526299015   24.70281009534855
C        -0.16100969499217    0.33394133535702   23.79386655672985
H        -0.64238176022993    0.89234675773074   24.58381613841764
N        -4.63197778916194    3.14038298644130   24.46747462341055
N        -3.35649244459599    3.53597394628795   24.53124620867775
N        -5.16481321674777    3.41611360997584   22.06147486720187
N        -4.03348603824866    4.07019956100478   21.77657432578452
N        -4.22431816412121    1.26046475088853   22.88561192942503
N        -2.88746680486318    1.40130124012028   22.90142680332346
O         0.11154181505450    2.38838944298816   21.88620806195609
O        -0.18567244244801    5.36813652064622   22.98350833813232
Ni       -2.20523378107730    3.32805672743609   22.87014989315069
Si       -0.12829737258447    3.10508282577787   18.97196081076886
B        -5.18549945269115    2.41695460647846   23.22631506599581
H        -6.27371102100463    2.01056050902278   23.42564477906027

