56
CSD_code = ENUTEO | q = 0 | S = 0 | Stoichiometry = C17H29Cl4N3Si2Zr | MND = 6
Zr        1.99623149378175    4.01795301887171   11.83604617871417
Cl        1.68397426459272    1.79595163012544   12.58047522229660
Si        3.78108362924192    0.23794499960576    7.99642995193172
Si        2.41331782336736    2.86521772541101    8.78429799927813
Cl        2.94357666013250    6.03764605064929   10.99260467820734
Cl        1.28949714621711    4.96872612238153   13.83736892183538
Cl        0.00081111750512    4.28608651569552   10.70031110197661
N         4.07957170197138    3.81531936448616   12.68987467595421
C         5.01110383791375    3.57579774466022   11.75193132045063
C         4.44823288891372    4.03585070269919   13.94427803918803
H         3.64126446002334    4.22995504932620   14.64697207692701
C         6.36522518214237    3.53458444447853   12.07217533870038
H         7.10044399074796    3.31576663431671   11.31453544478457
C         6.75186537481322    3.76695154176960   13.38308694752947
H         7.79703647213504    3.74419794655985   13.65353045126870
C         5.78083559919726    4.02588858937153   14.33741247664939
H         6.04509337258168    4.21433665691756   15.36542921102740
N         3.18113059181056    3.13011927280194   10.33737291943143
C         4.46443279406185    3.32950777033939   10.39488912926112
C         4.93409166460141    2.73471916869185    8.07073479544573
C         5.29803386932399    3.33265069625376    9.24595003507481
H         6.25315218158395    3.82426678487688    9.31972240321998
C         5.77661086148782    2.95798063464352    6.82458930340455
C         5.20913863166277    2.23275917013192    5.60528628693370
H         5.33773489367826    1.16009037581503    5.68288443505193
H         5.72295067382911    2.57455395465357    4.70971999913706
H         4.14911292127756    2.44366516419691    5.50192636580571
C         7.24603832376776    2.57210509045480    7.02561213776855
H         7.34104022814817    1.53038994050859    7.31371626199782
H         7.71543066698303    3.18603639501249    7.78913737166657
H         7.78968407670558    2.72172768862748    6.09562593933494
C         5.69477264435532    4.47047459490642    6.53815158308038
H         6.29353884533317    4.70543666314619    5.66088877269258
H         6.06409118440082    5.05860903107475    7.37293073236376
H         4.66683719095901    4.76198867997743    6.34301254243721
N         3.76748645431404    2.02119000018135    7.98036079413894
C         2.11705813514921    4.54462015950466    7.92917613545864
H         2.91147916209613    5.25294516590708    8.15943130897267
H         1.19138083014568    4.97887586801453    8.30181994126045
H         2.03378625699556    4.45519430989140    6.84988195663627
C         0.88165362524104    1.77040553847030    8.98653158897701
H         0.89904922730953    0.88449795223492    8.36517503305485
H         0.00249479977188    2.34814593323333    8.72302887328158
H         0.76140182163226    1.46635639307748   10.02586768049749
C         5.55115598204743   -0.47421915254422    7.90585122212988
H         6.03462463668870   -0.36172771873300    6.94275926954652
H         5.50397623808786   -1.53998528056525    8.10793743835597
H         6.19335837090965   -0.03147233081019    8.66177981348677
C         2.73098179832460   -0.29303833310361    6.49633515801532
H         1.96359168183579    0.43774134342448    6.26247449230929
H         2.24061533915450   -1.24006535918966    6.69554920880881
H         3.33385980500198   -0.42947101876300    5.60429178108322
C         3.12561056189006   -0.41127200602203    9.66809785338416
H         3.03137339480581    0.37578299207362   10.41267466047547
H         3.78788457884435   -1.16786906253352   10.08020703615979
H         2.14849004050300   -0.87169120718838    9.56885770314136

