57
CSD_code = ENUVUF | q = 0 | S = 0 | Stoichiometry = C22H26Cl2N6Pd | MND = 4
Pd        1.98328384672984    2.92980785627701    3.93492728198784
Cl       -0.15792663657898    3.34404600416783    4.64163678384441
N         0.88939954033372    1.86794532462297    1.29373374378086
N         0.76675837310428    2.13644755605677    0.01107887560267
N         1.26990808456744    3.33641899739037   -0.14293511177042
C         1.44361742982824    2.86467561428385    2.00855682258469
C         1.70477487266207    3.84198832009292    1.03736119780161
C         2.37458991044003    5.11191089685531    1.26680315222009
C         1.25517640009789    3.93727615317534   -1.44534600105761
H         2.18257155678200    3.72115400778822   -1.97937141210284
H         1.13194670439290    5.01515938838370   -1.35075692495766
H         0.42385134842684    3.51118508812884   -2.00530600275292
C         0.44596992678123    0.60365441095442    1.82180131658958
H         1.13234787143669    0.34115352664497    2.63768920061178
H         0.51073739025333   -0.13219996457558    1.01641103948993
C        -0.97675785911530    0.70737376168673    2.36119073710969
H        -1.01631588610895    1.46102886797387    3.14707591125542
H        -1.28037947183363   -0.24752106225668    2.78023325546122
H        -1.66787367291159    0.98272068510061    1.56779988954456
C         3.28329019508920    5.65597705451753    0.36146504773721
H         3.50998259863200    5.14270986784030   -0.56051369844376
C         3.94456693438650    6.83296474567093    0.66091224721374
H         4.65345858023070    7.24075175676465   -0.04473848675872
C         3.70906429453682    7.48118552208150    1.86069885509328
H         4.22719328196808    8.40066567292156    2.08956516619707
C         2.81207675855462    6.94345614476339    2.77017634525775
H         2.62408033681353    7.45609528437978    3.70278299936947
C         2.15086514669578    5.76262480420901    2.48564981945608
H         1.41584064297621    5.35584292077976    3.18402577848286
Cl        4.12427557631437    2.51559727353930    3.22770419346152
N         3.07727935940794    3.99184353215789    6.57598148736122
N         3.19995018661286    3.72336362367660    7.85863525251575
N         2.69677595989550    2.52340489548421    8.01268703064721
C         2.52303966952229    2.99509824171273    5.86121419250649
C         2.26184963419516    2.01782499388902    6.83242199867047
C         1.59196385793843    0.74793290100813    6.60301008374827
C         2.71152889844483    1.92256431500361    9.31510167214239
H         1.78415596762355    2.13872629492425    9.84914812843621
H         2.83472052121282    0.84467510792307    9.22052193010392
H         3.54288776707665    2.34863897813527    9.87502173937692
C         3.52070892779584    5.25611492810252    6.04786555835943
H         2.83441867831939    5.51851340813160    5.23186813427186
H         3.45580065652052    5.99202998275512    6.85318840546700
C         4.94351314993101    5.15243309286900    5.50866958675227
H         4.98320366586169    4.39874794835879    4.72283022072329
H         5.24716234686739    6.10731078168882    5.08961025659419
H         5.63453290319817    4.87713543802403    6.30215879004929
C         0.68326127196742    0.20391657139518    7.50837514138874
H         0.45662228202532    0.71719788628973    8.43035889575067
C         0.02191775247710   -0.97304042132150    7.20895255503664
H        -0.68696595184390   -1.38079471400481    7.91463174435858
C         0.25734856295981   -1.62127718689622    6.00915991349702
H        -0.26084232334023   -2.54072727624012    5.78031060127111
C         1.15433018276869   -1.08359108634263    5.09964857667541
H         1.34226973825755   -1.59624589660394    4.16703777836691
C         1.81560597732722    0.09721217808266    5.38415029050451
H         2.55058628149311    0.50399500157749    4.68572801311377

