57
CSD_code = ENUVEP | q = 0 | S = 0 | Stoichiometry = C22H26I2N6Pd | MND = 4
I         5.01228877869209   -1.94633508820394    5.59064366358053
Pd        3.58370649063500    0.00038732095206    4.56273696294744
N         5.06514036240667    2.25329853757397    5.96626693068032
N         6.15832526843621    2.98621810059337    5.95986602234848
N         6.89351043116294    2.50600141388122    4.98895800372686
C         5.04498650947807    1.29881381544461    5.01778575033081
C         6.27853327896013    1.46723497002241    4.37106316942716
C         6.81016389842723    0.64663684055929    3.29581403984913
C         8.16303881542095    0.32434806922139    3.20200513628269
C         8.61260702395461   -0.50967940646976    2.19575048055468
C         7.72416496661572   -1.03235051122331    1.27233769157623
C         6.37550886795853   -0.72986967945750    1.36652800561836
C         5.91392318174355    0.09550093194040    2.37422268792416
C         8.13894278093072    3.14760466659043    4.68105041157547
C         4.07612210247658    2.45059656084422    6.99306352162587
C         4.42210367234424    1.58950578889390    8.20510033745341
H         8.86310885273957    0.68715868015415    3.93870266800281
H         9.66186986789971   -0.75880343146032    2.13934547276243
H         8.07883725714224   -1.68248170270788    0.48674934483371
H         5.68389721643768   -1.14040856322341    0.64642364394746
H         4.84906452757683    0.34895819246704    2.43165719165854
H         8.06479901007109    4.19026067456856    4.98758386560542
H         8.95910457155027    2.68006274832798    5.22955566006511
H         8.33115575122852    3.08373117480205    3.61092725224863
H         3.09853431562867    2.16577616733712    6.58011386003434
H         4.07178006911110    3.51089489259539    7.25496583151661
H         4.42834137815369    0.53439824571377    7.92933239275434
H         5.40660292468705    1.85404342517796    8.58577390825954
H         3.69367552986812    1.74262299128096    8.99582740121538
I         2.15621917135615    1.94534869919049    3.53647356587394
N         2.10252735863843   -2.25321691471089    3.16037926270962
N         1.00937824420368   -2.98618650960065    3.16681705726907
N         0.27419048148788   -2.50598249912096    4.13772905978966
C         2.12258693908190   -1.29859653783093    4.10871891961697
C         0.88916564308695   -1.46722163011808    4.75564623346441
C         0.35756467053291   -0.64666844817065    5.83094489877775
C        -0.99531461667324   -0.32442152384432    5.92482234965880
C        -1.44484388504389    0.50967068399299    6.93104031191024
C        -0.55636810813273    1.03243501398745    7.85436689401445
C         0.79227808125734    0.72993852998711    7.76015840616013
C         1.25381886902376   -0.09551334402961    6.75251924771342
C        -0.97124965871136   -3.14758948639755    4.44560687554419
C         3.09158839402283   -2.45055654032395    2.13363115188161
C         2.74565970289581   -1.58949359107608    0.92157208041914
H        -1.69541929348129   -0.68728321184673    5.18818432186486
H        -2.49410457275002    0.75879360358872    6.98746934537095
H        -0.91100325626653    1.68263708397988    8.63991086273369
H         1.48392353445784    1.14051811536220    8.48020698252174
H         2.31864227305175   -0.34911694744436    6.69523749223978
H        -0.89712920818801   -4.19023488609353    4.13902686460386
H        -1.79139437339491   -2.68001386173111    3.89710471907587
H        -1.16348134539123   -3.08375922033544    5.51572874722082
H         4.06915914524371   -2.16569737267315    2.54659173664488
H         3.09596568625933   -3.51086228546251    1.87176113941933
H         2.73940015296224   -0.53438475867955    1.19732913328046
H         1.76117337655822   -1.85404907297766    0.54088758755553
H         3.47412889217504   -1.74261891382016    0.13088344425559

