96
CSD_code = ENUVAM | q = 1 | S = 0 | Stoichiometry = C41H49AuCl2N2P(1+) | MND = 2
Au        7.72098730889810    9.81616397529614   14.65642598769029
Cl        1.91392771303296    9.67978944182524   15.46067105983601
P         2.22129672385180   11.75986943610535   12.86347713204083
Cl        8.46097571165949    8.11814170951075   13.31942345556596
N         4.48593592434037   10.44144386807896   15.78226183760187
N         4.83942361625313   11.84240621987759   14.10507086640574
C         1.62913571680873   10.15788277789138   12.27206107974779
C         0.89834321124803   12.69085277559736   13.67104788814710
C         6.20728451104350   15.03928928625047   11.76572275486689
H         6.54273356517721   15.86617839318678   11.15943225389573
C        -0.11380288726923   13.22281967278179   12.87194852555787
H        -0.09366095666047   13.08558038699910   11.79971097340649
C         2.57332865859022    9.17084492061669   11.99245389444442
H         3.62660911103884    9.36715406494935   12.13767530527957
C         5.35204645582714   12.92198550385014   13.31914577517655
C         5.42304347757159   11.27074190214346   15.20245842931574
C         4.26057075970523   14.52845771525824   14.97294413227281
H         3.82707585782877   13.60086160386245   15.36092442254846
C         6.73724754546920   11.43259092012607   15.64428192811200
H         6.88739974315986   11.22221711851046   16.69232801018113
H         7.22432034847896   12.33291035766635   15.30089753437206
C         3.52211377809757   11.38228266890193   14.01482249769958
C         6.11064142439412   12.66067144181626   12.17287928285321
C         4.33282462093444   10.42404185599142   18.20410678557286
C         5.03408988161929   14.22997355273318   13.70946366363349
C         4.60001379527674    9.73001616647044   17.02008210601499
C         0.27168717680475    9.90007535286997   12.11449699844061
H        -0.45951908779769   10.65881019898174   12.35404298489682
C         6.54831606016987   11.27312418899566   11.76967373773751
H         6.27085543135852   10.56442989742860   12.55814382478499
C         5.48486303097168   15.27915920194516   12.91913682257276
H         5.27220542022817   16.29509930587266   13.20958926918605
C        -0.13616308207813    8.65606195696995   11.66500552880112
H        -1.18838594449948    8.45097956707075   11.54338083096086
C         0.87030773608974   12.88142278872827   15.04862581969767
H         1.65686255729715   12.48257298194857   15.66980087120533
C         2.80755621738893   12.74242064165146   11.45948060291378
H         3.67223504316421   12.26522678465881   11.00185092923647
H         3.07986610708204   13.74466151096502   11.78872228428444
H         2.00294904033252   12.80089115331591   10.72571366806088
C         6.51615564646970   13.74467020326090   11.40063548578263
H         7.09677929046447   13.56905870877127   10.50994143674562
C         5.21014484595815    7.61543751373158   15.73301880162633
H         5.39663172407428    8.33865465874538   14.92979856477543
C         3.33633507566485   10.51795030982092   15.05910005407282
C         4.89244048123799    8.36480854360626   17.00429085217290
C         3.10648261873440   15.50216212901395   14.72251713029992
H         3.47410766423695   16.49479848665563   14.48136547910834
H         2.49223843403646   15.58211439228268   15.61621800434006
H         2.47296123086219   15.15919775912892   13.90540741083198
C         4.89529473843030    7.69261655878051   18.22112766967588
H         5.10977182751520    6.63685859360888   18.24062093531764
C         3.99662482902171   11.89771657264914   18.21519630329255
H         4.10846792673974   12.30352122107020   17.20419303478189
C         0.80138897288090    7.67586997016082   11.37968262731657
H         0.47663524058715    6.70655080635767   11.03539889650234
C         4.35700358859465    9.71045302349730   19.39460955101898
H         4.15072330011622   10.21607313981344   20.32416780598103
C        -1.17670098066903   14.11624289158609   14.82894588149759
H        -1.98559793120938   14.66932558037550   15.27995991340192
C        -0.16756240829696   13.59420024976762   15.62182815847541
H        -0.18806760088023   13.74049825462281   16.69074593044653
C         8.07414290329736   11.23718157942771   11.62352472142459
H         8.39113699216142   11.71478702432067   10.70088828960056
H         8.41268087516092   10.20512189800232   11.61110930270532
H         8.55593482855200   11.74076246143663   12.45871696423058
C         5.91217830548173   10.80611638920388   10.45744190223676
H         4.84235043403516   10.62595698793289   10.55953595595909
H         6.37810704997021    9.87133049360886   10.15722188708588
H         6.06891244541307   11.53504608610403    9.66569229380224
C         6.47792475387748    6.77347186674784   15.90345636908492
H         7.25105690612790    7.34069902902193   16.41698348070348
H         6.86572880321370    6.49413659668999   14.92813009971667
H         6.27744715939938    5.86625723091950   16.46622545433602
C         4.62895703991757    8.35566775843898   19.40254152457084
H         4.63397213597709    7.81481350676346   20.33614467018862
C        -1.14777460089359   13.93216176089831   13.45494768186923
H        -1.93109650674814   14.34242178502095   12.83671760238390
C         2.54232377345383   12.10201834621283   18.65060297051229
H         1.86445212692697   11.52589692856724   18.02257189809066
H         2.27544723552934   13.15451438703128   18.58197405349102
H         2.40178809282470   11.78186982634348   19.67897561965126
C         2.15442141351063    7.93244540807367   11.54498267981434
H         2.88367364183313    7.16644636926988   11.33251878888613
C         5.21139601926933   15.08785961201714   16.03499183510051
H         5.98897059707850   14.36643846731740   16.27470657046043
H         4.66168605470707   15.31899794739220   16.94383370135141
H         5.68667496826316   15.99833216206417   15.68044577261682
C         4.04423551289739    6.71537431644892   15.31446102252114
H         3.79346177092369    6.02177758843640   16.11323387688196
H         4.32892223340311    6.14101079155263   14.43682792193929
H         3.15575369435431    7.29461698266905   15.07196530264224
C         4.94914899882909   12.67446802461116   19.12589274042785
H         4.85435532102899   12.35378645737171   20.15878573798954
H         4.72445018827357   13.73720626332628   19.07975823684768
H         5.98097899343819   12.52752483077270   18.81534138866438

