57
CSD_code = ENUVIT | q = 0 | S = 0 | Stoichiometry = C22H26I2N6Pd | MND = 4
I         7.71671100384313    1.34419636134564    5.35338158131367
I         5.14485765554371    3.62315906520341    7.34484823127076
Pd        7.34870915223412    3.90616224805124    5.91187479444015
N         6.75717957980094    6.83495972199749    6.61960759172021
N         7.06697177284274    7.74725444047282    7.51816519542475
N         8.03549488358740    7.22873924434393    8.22851905594871
N         9.90701887415637    4.02036172105693    4.21362783847516
N        10.28348337054878    4.20845708874607    2.96414676005364
N         9.21110027531616    4.60917141833530    2.33061607921308
C         7.50639091191360    5.72021026133195    6.71017683919532
C         8.35961507184933    5.98733123403865    7.79220753077466
C         9.39173988301606    5.11458338680635    8.33810297187820
C         9.15594956771687    3.73458685228142    8.39527406877165
C        10.14103427908644    2.87851118325510    8.85612352389406
C        11.36771006430077    3.37927045865701    9.26132786342905
C        11.60713531739103    4.74242044088462    9.20857291983856
C        10.63065502313853    5.60650969957158    8.74782128453923
C         8.54089085438834    7.95654551738160    9.35695097280713
C         5.67652720972247    7.06961526799601    5.69482777008468
C         4.41235072553466    7.49901929061959    6.42460143435250
C         8.60711963156026    4.29257100108658    4.42682900714759
C         8.14406637288587    4.67979566795987    3.16071184058039
C         6.78438089849145    5.07239076235605    2.80791198239420
C         5.71022871967014    4.35638059836852    3.35350186666564
C         4.40887076288818    4.74885273928639    3.08963566171048
C         4.16211813255671    5.85592453796228    2.29364213597741
C         5.22007590894835    6.56587821352852    1.75010544203692
C         6.52411520953108    6.18034370123937    2.00347677867084
C         9.26814871559939    4.84244872138381    0.91669319605353
C        10.85142368601481    3.52418662915540    5.18038182684824
C        11.89242422347957    4.58147898677891    5.52115243230755
H         8.17551295002854    3.32245251435656    8.13572366927036
H         9.94564955298645    1.81740939727458    8.89659661041177
H        12.13415349213674    2.70911854374387    9.62005564300950
H        12.56212858364728    5.13816798265634    9.52206104236832
H        10.84741661306223    6.66286974991499    8.67859203896361
H         9.38773449252605    8.58160242052655    9.06672024154046
H         7.74384747567491    8.59858110515394    9.72886474126228
H         8.85168858089878    7.25761305976575   10.13212833350764
H         5.50755806634635    6.12667735045254    5.16040940410167
H         5.98708350166394    7.83772478600249    4.97776148117510
H         4.59011663512631    8.41216741184493    6.98647106315381
H         4.09242463875599    6.71627624212992    7.10811588928876
H         3.62125624762743    7.67185426683302    5.70106576945899
H         5.88270793117777    3.45009506552852    3.94066962288037
H         3.58897315065915    4.18914310386912    3.51392646778740
H         3.14663362077566    6.16292117293704    2.09438044509484
H         5.03146897403245    7.42871130427702    1.12828296238807
H         7.34088868371475    6.76120752154459    1.59894140176476
H         9.51944391798539    5.88432276365303    0.70787428125805
H        10.04368368547384    4.20386522599812    0.49673615683642
H         8.30340813706303    4.60485523880503    0.47055021218392
H        11.33136329562829    2.63699362954764    4.75940616085563
H        10.28093684117407    3.23687098783362    6.07229386653504
H        11.41383862222805    5.46513300792714    5.93961005198605
H        12.44547993711322    4.86621674153605    4.62901245499005
H        12.58560463480602    4.18493294424790    6.25683351016519

