43
CSD_code = EPABEE | q = 0 | S = 0 | Stoichiometry = C10H24Cl2N2O4Pt | MND = 6
Pt        3.13634957835124   -0.19322077417863   23.91915882451373
Cl        2.17444241460531   -2.23689310597250   23.64188568505555
Cl        5.04064745451409   -0.77687236171538   22.81953219025258
O         3.99742762767571   -0.92218779810649   25.66192143741952
O         3.40148081292400    0.87473198108073   26.79760331895063
O         2.33825038010447    0.35371272687091   22.08232261375444
N         1.34331341559696    0.41190836953854   24.96171540284710
H         0.65022562251171   -0.32999070092211   25.01781216978992
H         0.97873181182520    1.21846727661402   24.44779877914145
H         1.64342451328946    0.70766534114959   25.89409312187504
N         4.00903312383609    1.76101576365085   24.21281683135263
H         4.03102545829636    1.90684562459735   25.22571682150735
H         3.36185835551531    2.42860172563463   23.78560406829959
H         4.93920501199792    1.84398399981927   23.81045334667603
C         3.93058202590884   -0.23834177139955   26.72602707291488
C         4.50797561417659   -0.92459847588371   27.97471098346229
C         5.00408335499585    0.13811565501805   28.95286850417927
H         5.86855498416864    0.65798279449969   28.54579641713868
H         5.28950844582835   -0.32811840646050   29.89268906674598
H         4.22258129010444    0.86931428328448   29.14356995834824
C         5.63182872208867   -1.88318860803360   27.58980632050383
H         5.27300822215645   -2.62113309397943   26.87793699379909
H         6.00005784371297   -2.39458239979423   28.47641558632369
H         6.45646175253688   -1.34231924071568   27.13125279656031
C         3.33088134667809   -1.70147928057162   28.57966532064943
H         2.52770436731938   -1.02176288163218   28.85786144704970
H         3.66028868739964   -2.23234402197627   29.47015364134332
H         2.94829428650366   -2.42550930043930   27.86355923165444
O         1.59806467270964    2.27206189228903   22.88669386788755
C         1.28961626876744    1.80026369509554   20.53198961767577
C         2.52733966210653    2.37601154849575   19.83128808720163
H         3.33670506583231    1.64950950710872   19.83977120113260
H         2.86266475531344    3.28302023525822   20.33084285326335
H         2.28565621169073    2.61867325467904   18.79882968689465
C         1.75279692872120    1.47115238606088   21.96062312188101
C         0.17254124045716    2.83974315472942   20.58251305507380
H        -0.07840320034568    3.16192175978241   19.57488395172503
H         0.48525871083095    3.70408134052704   21.16276118509889
H        -0.71794275718073    2.42136908491587   21.04626709008033
C         0.82423223502105    0.53054888123520   19.82221323201872
H         0.55380981758776    0.76040927992860   18.79403617588326
H        -0.04312190981160    0.10720931569135   20.32389895142995
H         1.61535577364355   -0.21387865585522   19.82323997063124

