55
CSD_code = EPADUW | q = 1 | S = 0 | Stoichiometry = C22H28AuN4(1+) | MND = 2
Au        1.37560907924726    4.38438989543763    7.01453001763968
N        -0.04388477760482    5.16687966286507    4.46115693443687
N         0.80419787341965    3.17965217577525    4.28281304768054
N         2.72214349487967    5.68029451239951    9.39340339994907
N         2.02410003489569    3.69157961750600    9.90139662225041
C         0.64997582212763    4.22113506666587    5.12069539335885
C        -0.33928406044548    4.73832950878510    3.18511004837152
C        -1.01396553988908    5.33784629609363    2.13072806398908
H        -1.43423836907813    6.32667429967427    2.21688845784934
C        -1.11946689166978    4.60970527527521    0.96317676338402
H        -1.63649064503728    5.03707475000884    0.11883900021994
C        -0.57059871120574    3.33125761324942    0.84459012527151
H        -0.67502691223509    2.80254671774464   -0.08952723630191
C         0.10178030995931    2.72904499943062    1.88863613120572
H         0.52723828191405    1.74408368382782    1.78441919678186
C         0.20862817067877    3.45177975754581    3.06952631744409
C        -0.43292647178698    6.45030124894904    4.97324050281212
H        -0.13467158931371    6.52598975233227    6.01756600051683
H        -1.51493195780436    6.56973866044297    4.89950717007115
H         0.04740224858090    7.24660557306109    4.40143955565443
C         1.44308086092484    1.92722621699324    4.59492365314555
H         2.05799103716824    2.07696637499213    5.48594222520088
H         2.09531281507747    1.65621404834625    3.76012639512652
C         0.41976238183532    0.81234554983578    4.83888479433061
H         0.95900548214043   -0.13180375149347    4.92290269542783
H        -0.24703827141768    0.74249274227031    3.97797414368712
C        -0.40303289822399    1.04476559562952    6.09908698679531
H        -1.14369932376463    0.25823998060524    6.21155732482960
H        -0.92500465016292    1.99868518729905    6.05471636096047
H         0.23494324240142    1.03887709614765    6.98028920979512
C         2.10580811962342    4.58939939826487    8.90250215356524
C         3.04083213256881    5.49071278842252   10.72074826562204
C         3.66295995834854    6.30396530986956   11.65771966249529
H         4.00765463607229    7.29415258583518   11.40770008526005
C         3.81683128711801    5.78715640181489   12.92806895537144
H         4.29251733853435    6.38618139830282   13.68813804017885
C         3.36301643852613    4.50880613734188   13.25909898812935
H         3.50001408984557    4.15054923382997   14.26701734574693
C         2.74283537116471    3.69499986994458   12.33285779330313
H         2.39246398992349    2.71121868344134   12.60008880325814
C         2.58954376029077    4.20353274774430   11.04984582138908
C         3.01795562776431    6.88742362201839    8.67497750966891
H         2.72063998547699    6.76840930200953    7.63441998011862
H         4.08776159922437    7.09680563500066    8.72078395481576
H         2.47698786761154    7.72918285398792    9.11150788120639
C         1.48133033346150    2.36116245789466    9.80335332324931
H         0.86222347778086    2.31692376066916    8.90381977947136
H         0.84615008694449    2.18350898355306   10.67560948563606
C         2.58574301000113    1.30005166110415    9.73827238243246
H         3.25146319020148    1.42145663129450   10.59420303648309
H         2.11803363249786    0.31783125675940    9.81399234716144
C         3.39656810844694    1.38150460314190    8.45193795958913
H         4.19255728839118    0.64240495096499    8.46390845302637
H         3.84788708744075    2.36502621566013    8.33649415770005
H         2.76451151711410    1.18611540343390    7.58839453323770

