88
CSD_code = EPAJAI | q = 0 | S = 0 | Stoichiometry = C37H45FeIP2Si2 | MND = 8
Fe       22.39017283560710    9.15695200685739   11.13225957356798
C        23.52159025901221    9.90415122583469    8.10662056751936
H        23.94179149050481   10.78552193457167    7.61226603646745
H        23.98506595406061    9.02136068005222    7.66004270956976
C        21.99951340525625    9.84181261006741    7.94782977102097
H        21.69020253211043    8.85749982436367    7.58066562760501
H        21.61985548303047   10.58488510476149    7.24012358491027
P        23.98018609138413    9.96961131860971    9.91705273250388
C        24.39223583669591   11.75015925284159   10.04788767050043
C        23.68292012081707   12.58419685884438   10.89809560464761
H        22.88638154171279   12.17225725133039   11.49626122764938
C        23.98148795689322   13.93383289192010   10.97128228929857
H        23.42084983325768   14.57182965081646   11.63890438575645
C        24.98853431567100   14.46223242331955   10.18416814709735
H        25.22259933995217   15.51528709883064   10.23723822227024
C        25.69921158204190   13.63691255913805    9.32533335265482
H        26.48629765618799   14.04716973281892    8.70917779194077
C        25.40565976978133   12.28922431712659    9.25736155355528
H        25.97108582880394   11.64417173135345    8.59669636475793
C        25.66980613762093    9.29033409154676    9.94677460475774
C        26.58206709293977    9.85949459381451   10.83347003069262
H        26.27950396263682   10.71070054103917   11.42955026438164
C        27.86543946342352    9.36003708329526   10.93855522612868
H        28.56687010304105    9.81561687678321   11.62258384140770
C        28.25149048728318    8.27508147482063   10.16775135860268
H        29.25533853964835    7.88540691869324   10.24704595306537
C        27.34250895069673    7.68529405964906    9.30572535791221
H        27.63128717415846    6.82733864089687    8.71722398363395
C        26.05466987471529    8.18138924387828    9.19987792956324
H        25.35267862715197    7.68351507644332    8.54860814122850
P        21.16382203177498   10.04816542847458    9.59250091151497
C        19.49370063698348    9.46902536840340    9.14998177929472
C        19.04598058835256    8.25811618328683    9.65824862003089
H        19.67948488931183    7.70619243677162   10.33363925904254
C        17.80156770627580    7.76965323600922    9.30363085344615
H        17.46222120085862    6.82521648351825    9.70085833620941
C        16.99654584912046    8.49545344815445    8.44259731363321
H        16.02279685406941    8.11978689028462    8.16477407504442
C        17.43760115914156    9.70851141297114    7.93556112606978
H        16.80771037149317   10.27485156684985    7.26474447413124
C        18.68244708374318   10.19691333278828    8.28384400232306
H        19.02467989326254   11.14565737135670    7.89241268300372
C        20.85486179844910   11.84498236559926    9.65754047751652
C        19.92156998911582   12.26724711990938   10.60070104653690
H        19.41158343046011   11.51976248872914   11.19048465522800
C        19.64691455268690   13.60972606303104   10.77002487545922
H        18.91729496017420   13.92485112172128   11.50232990655791
C        20.30892408836115   14.55162912649764    9.99775658182734
H        20.09752475647708   15.60298867312180   10.12628414162183
C        21.24132948655531   14.14123407286374    9.06106041746355
H        21.76202116393202   14.87237226040152    8.45954708956350
C        21.51984687329684   12.79593624216373    8.89294335766667
H        22.26204461872641   12.50082247384184    8.16603672998600
C        23.28262367883219    8.60884744608191   12.99319894075808
C        21.97522046880162    8.05790695974896   12.91845184336508
H        21.75534140734866    7.00803540808059   13.01859641755242
C        20.99923596937850    9.07083078136670   12.77663978111838
C        21.73315212962974   10.29917504409086   12.74193150773160
H        21.28437333103058   11.28017055832096   12.74743490111840
C        23.10839122587502   10.01535991319434   12.89082333717530
H        23.90086440463018   10.73867718707036   12.99647102078596
Si       24.76758173057917    7.65499709835275   13.64190382314050
C        26.05342438020680    8.90357979262428   14.29078461251546
H        26.47979803463679    9.49665743755929   13.49004809723852
H        26.86977210021523    8.38060765892014   14.77828189158969
H        25.61960829479438    9.58365995210335   15.01783693099147
C        25.54562033137656    6.45420184124738   12.39300002578435
H        24.81376385249177    5.74908349274762   12.01211163898916
H        26.34407023265142    5.88370519298017   12.85813487442612
H        25.96655376325292    6.97402255304356   11.54000836686286
C        24.09626290406133    6.65473950846303   15.12646227508856
H        23.55329137422707    7.28389535711769   15.82610132204861
H        24.90850680322822    6.18317349018914   15.67066905547780
H        23.42336520779724    5.86794213635793   14.80051494678493
Si       19.21468933579152    8.76114230152720   13.28250020881016
C        19.21331606553321    9.13170131414763   15.16037096966533
H        19.94409410387424    8.52218732338777   15.68389707981103
H        18.23998974614148    8.92539944183431   15.59514101714099
H        19.44999729765024   10.17200378393388   15.36498570371426
C        18.79977906527369    6.91829363621175   13.01360355203852
H        19.33085084739442    6.48351463133221   12.17336875678471
H        17.73825618848540    6.78050568834971   12.83360941765522
H        19.05876116818140    6.33619556846999   13.89303848982495
C        17.86632114636274    9.86130231854026   12.50398469606524
H        17.97349867079001   10.89891674311848   12.80632521409271
H        16.89175730164295    9.52979570447664   12.85005180581841
H        17.85432349250256    9.81797487942798   11.42007386217919
I        22.56966771664617    6.96602561456679    9.87770699797454

