88
CSD_code = EPALAK | q = 0 | S = 0 | Stoichiometry = C37H46FeP2Si2 | MND = 8
Fe       -2.52884527021155    7.25833802472638    4.30533861993659
H        -1.14797287751998    7.40766275076098    4.72059179865439
P        -1.85964895125524    8.52846949842592    2.73560256663270
P        -1.75408975480437    5.61980423592594    3.20118578387266
Si       -6.13877588931514    8.14611137433062    3.64592447699063
Si       -1.70336870339983    8.38847450337330    7.46785703910955
C        -3.78779485187543    8.51271857199437    5.36863100703162
H        -3.84663888432286    9.58847619651942    5.35529748878151
C        -1.26009616134620    3.57299231354961    4.98652330763294
H        -2.28754068030433    3.30004395457298    4.78132847688051
C        -1.87212577573501    3.21185062950425    1.76228113459637
H        -0.80389616047418    3.16647629164994    1.92583159268360
C        -3.29235596084687    6.39190288732632    6.01950206929491
H        -2.90349345835677    5.55829186034193    6.58005170900296
C        -4.59175029641991    7.63537843896222    4.57061120497800
C         0.62605536645928    4.99104594936328    4.55507207941830
H         1.06454002792403    5.83110596190342    4.03639520933817
C        -2.60061813731329    4.27421010212345    2.28865659849909
C        -2.74275903444138    8.75568874478655    1.14847303756219
C        -0.68042020996705    4.61488642950660    4.26803174574948
C        -2.33536865204123   11.13776060466418    3.35578589878837
H        -3.35992426109984   10.80758553571945    3.25459406900445
C        -0.53400936129384    2.89520591730864    5.94705029690330
H        -0.99035078251373    2.08539271747326    6.49866356516782
C        -1.31542472681716   10.22672091385598    3.08625977492889
C        -3.57868525712117    7.71397246410709    0.76763729736798
H        -3.69492929884480    6.88509928549034    1.45413052893224
C        -2.57990559656111    9.84762967384922    0.30491876598345
H        -1.93089390337239   10.66212935096632    0.59484237261607
C         0.00587874567813   10.63557603630870    3.22140463029582
H         0.81341311352169    9.94505349000650    3.03083596175137
C         0.77690871990135    3.25953867246482    6.20890030218626
H         1.34493281652873    2.73303848825829    6.96183790355080
C        -4.26958062640367    6.32321869123151    5.00101099285536
H        -4.75475860621259    5.41768253812872    4.67498011211973
C         0.29629626755156   11.93480315868369    3.60226675386447
H         1.32638806955509   12.24550973152021    3.70274474073367
C        -3.00841419668039    7.76020812988747    6.27508157509454
C        -0.33091444107091    7.70781677526005    2.06382550006264
H         0.02481666810647    8.19828992680955    1.15075893653898
H         0.41995125650602    7.80259779541406    2.85139796174105
C        -0.64385990481225    6.23493442847495    1.82975166031801
H         0.26578916165061    5.63115075691178    1.74960465221764
H        -1.21286027628289    6.12188323355035    0.89944404526047
C        -4.08476275055634    8.84556620862589   -1.27811457424157
H        -4.60792960204507    8.88614166247674   -2.22229051669244
C        -5.92337750053992    9.76817742201579    2.67010809870409
H        -5.73875252819186   10.60415836041075    3.33782054452048
H        -6.82135274232769    9.99896766584196    2.10512507543851
H        -5.10047102641960    9.70998475272428    1.96524291349772
C        -6.78785721421178    6.79452498598534    2.46532290860274
H        -6.16322228654998    6.68617588705132    1.58546399645065
H        -7.78740069483825    7.04650379974069    2.12365688675219
H        -6.85130071519571    5.82914528488603    2.95815687652134
C        -4.24269599035187    7.75053853316427   -0.44350938701950
H        -4.88419179903534    6.93238686552418   -0.73884495399064
C        -3.25713323507011    9.89108259536247   -0.90129335761832
H        -3.13672294687660   10.74433599965659   -1.55336835488671
C        -2.51319756768464    2.21827840936690    1.04714322890589
H        -1.94474333046776    1.39386022978343    0.64103049865304
C         1.35360455251490    4.30970671438937    5.51302256255627
H         2.37121793850681    4.60375999247530    5.72761031690181
C        -3.97232239908197    4.32424544250528    2.09009778524904
H        -4.53118647245472    5.14908341142972    2.50700930819173
C        -3.88479232174198    2.27558037443392    0.85100909208308
H        -4.38266041139416    1.49610549861906    0.29285117698364
C        -7.46779822247712    8.42903835272024    4.99453295662342
H        -7.67397998888742    7.51547376136309    5.54438090652029
H        -8.40329235676577    8.77062213649772    4.56127963899536
H        -7.14626050917176    9.17554649611769    5.71474156340883
C        -4.61465905833905    3.32923273297672    1.37366710514336
H        -5.68408576112117    3.37512503189973    1.22468662664208
C        -0.45825570342925    6.97522144252148    7.74714106595469
H        -0.88205521764216    6.16944030217144    8.33854717911440
H         0.44252813878373    7.31395214856941    8.24879376856636
H        -0.17480557122955    6.56242179233704    6.78368664621033
C        -2.54519394446936    8.89682418615900    9.10619016099646
H        -3.26593963921787    9.69325762425784    8.95180308809912
H        -1.80862695679105    9.25271916530534    9.81855659565993
H        -3.06860397546391    8.06250380914517    9.56186487325638
C        -0.83296884834825    9.87818909160459    6.66664479309832
H        -0.46626750656273    9.58088501433307    5.68964211756891
H         0.00781277291666   10.23255708271254    7.25412446802088
H        -1.50964487518976   10.71390583782854    6.51796256372955
C        -0.72346271972429   12.83472679972044    3.85888904137156
H        -0.49046749770419   13.84580565692360    4.15909952605075
C        -2.04467490845261   12.43341695797061    3.73339137923432
H        -2.84364587104919   13.13289744443671    3.93490856523984

