88
CSD_code = EPALEO | q = 0 | S = 0 | Stoichiometry = C39H46FeP2 | MND = 8
Fe        6.46624089333925    3.28849762451240    4.52320642823238
H         5.29067580631990    3.55983364234310    3.75074914884565
C         6.53088813192433    6.50467056200058    4.16319979001951
H         5.70574580629339    6.52115977781893    3.44118068876493
H         6.61645698123746    7.49408141137204    4.62291187471096
C         7.81136398992125    6.06831001607437    3.46409701441496
H         8.64833781660598    6.11318191820850    4.16540295290191
H         8.03699045149209    6.69295580345956    2.59335640187998
P         6.07304436913900    5.19141226283248    5.39843126045940
C         4.34784598851276    5.67633018297169    5.75377331513445
C         4.03341873953152    6.91876798449541    6.29681128071377
H         4.82345284300305    7.62104535520012    6.52761046194347
C         2.71496140698072    7.24801186420392    6.54970687762378
H         2.47170241749156    8.21426248968985    6.96840366783639
C         1.70447565734983    6.34050966535295    6.27117816630753
H         0.67569727670067    6.60143361351016    6.47412960867767
C         2.01378192806260    5.10146431195846    5.73566146516520
H         1.22629302006542    4.39328025826246    5.52081502938691
C         3.33267973082620    4.77213496068362    5.47846565713449
H         3.60736754514430    3.81891591628980    5.05124259026193
C         6.81035223534659    5.78589569241156    6.96328251601531
C         7.91952053087636    6.61720254526321    7.05612205873116
H         8.38052327801377    7.01410418684773    6.16399418219701
C         8.44223839786035    6.94871135480717    8.29444142585957
H         9.30077579022739    7.60223208416101    8.35644523516096
C         7.87325667953989    6.44412018918740    9.45106584296457
H         8.28689797543334    6.70150697902316   10.41508706697979
C         6.77070010034771    5.60764691367366    9.36842631238258
H         6.32275337261531    5.21266787965479   10.26913071941157
C         6.24609346162937    5.28136683727167    8.13340064640454
H         5.37811084391130    4.63794836300818    8.05710229745002
P         7.56038985027048    4.28483078191153    2.97670571546957
C         9.20654782390894    3.76089314682999    2.38388900917285
C        10.41861497325998    4.36931121848532    2.68316198714675
H        10.45067840271979    5.27150573296415    3.27580480270733
C        11.60366060175958    3.82728881886560    2.21334318055571
H        12.54191103939280    4.30927592016499    2.44801181158703
C        11.59225973129574    2.67423361857631    1.44810444505029
H        12.51983261469229    2.25434542216975    1.08797797377090
C        10.38646071252174    2.06095820430950    1.14279148550723
H        10.37292044524460    1.16287615635160    0.54204155719246
C         9.20495514151688    2.60100788542179    1.60992055940836
H         8.25437456537516    2.13992403239593    1.37511428658544
C         6.81755484938270    4.60959134764988    1.32332872258311
C         7.59364904738555    5.11677894412834    0.28311524381819
H         8.65133685132636    5.28913752266106    0.43328122683048
C         7.02123362496787    5.39534197264673   -0.94358059641273
H         7.63269483391447    5.78502143849125   -1.74509286013962
C         5.66802270268959    5.17629432217705   -1.14765734394126
H         5.22478771719685    5.39312024658365   -2.10872010560936
C         4.88863895866320    4.68105904097486   -0.11658233995829
H         3.83257350071003    4.51166253453330   -0.26885495400031
C         5.46281394616038    4.40071791455311    1.11067641966958
H         4.86876564788675    4.01638850390651    1.92718496884549
C         7.84635368075414    2.03579443994311    5.58698648504088
C         7.39292722899994    1.39447796744846    4.40116237752516
H         8.03334082076949    0.99524002173023    3.63438125799067
C         5.98514322977881    1.24100120516939    4.45113422010484
C         5.55349764245317    1.81929218284408    5.67695043533494
H         4.55751778908843    1.78633355944416    6.08447033445036
C         6.69569778212494    2.29833057313377    6.36305729490878
H         6.68935448784960    2.71701990227256    7.35572591096051
C         9.26875531272587    2.20045993522849    6.06328362352108
C         9.41465304708088    1.53783532221987    7.44045944072509
H         8.78757350649461    2.03205444086358    8.17829618614005
H        10.44770941008846    1.59747478656217    7.77780108277667
H         9.12762959585433    0.48946660084420    7.39062327884439
C         9.58946567424879    3.69062933272328    6.18110424052076
H         9.40292005457019    4.17159752855056    5.22308212322219
H        10.62867196885896    3.84735791260306    6.46357299499137
H         8.95053294139883    4.15670194199416    6.92621416338193
C        10.25222279801232    1.54051286799059    5.09546643689055
H        10.04894263974988    0.47501815773909    5.00946669661807
H        11.27143139037089    1.66421617823642    5.45676198307006
H        10.18512615380260    1.99080670802953    4.10972382053604
C         5.14274369035880    0.49421144671956    3.44909533008971
C         5.70125279764277    0.71845673103419    2.04125055216957
H         5.02145579429310    0.31934347003969    1.29145645634423
H         6.66349793239600    0.22694376644599    1.92024633342134
H         5.82581551615769    1.78679959364826    1.87315364303855
C         3.69561020984854    0.98793878335975    3.48794820709243
H         3.67930118459223    2.06179968623731    3.32086860840171
H         3.23407389284144    0.77679093435210    4.44922091200531
H         3.10703946585929    0.50100396742236    2.71323977286830
C         5.18781789070133   -1.00045865482067    3.79832445821140
H         4.78543915088940   -1.17046327283861    4.79495586833066
H         6.21221627297330   -1.36690511249425    3.77633004311772
H         4.59904799841907   -1.57291027791805    3.08418824751994

