88
CSD_code = EPAMOZ | q = 0 | S = 0 | Stoichiometry = C37H45ClFeP2Si2 | MND = 8
Fe        0.04527663928306    2.10631622639029    5.63435692864273
Cl        1.72417948105505    0.90670567807277    6.31463020240741
C         2.57710791865175    4.04011952657630    6.43575825110690
H         2.75616123204919    5.11516466895058    6.52926582314021
H         3.21498459458126    3.52713564820048    7.15858912667691
C         2.87620076520807    3.54092131812706    5.02002171808102
H         3.46845405502097    2.62160765229184    5.06534418727064
H         3.42998445112023    4.26854168277308    4.41919506790379
P         0.79409122295312    3.69258370184230    6.89145681645861
C         0.91067211062324    3.55131600858551    8.70394223562752
C         0.05940155960131    4.25905510751013    9.54859058278565
H        -0.66578118556875    4.94507274883764    9.13159026296688
C         0.14914760858748    4.10286627943365   10.92007692653403
H        -0.50881413837603    4.66437067108278   11.56786026907995
C         1.07490662764674    3.22692702882365   11.46181812500467
H         1.14510464371711    3.11014897007288   12.53339023110792
C         1.89932579201991    2.49201996011903   10.62523437877153
H         2.60818061868415    1.79207046364043   11.04275769257985
C         1.81339575743341    2.64468834288620    9.25392265026294
H         2.42751427372351    2.04098499139272    8.60236522857176
C         0.10201371736050    5.37755373005433    6.70709963181821
C        -0.93614267526219    5.60391246987723    5.81551685605791
H        -1.33348436102301    4.77299035512176    5.25561081614189
C        -1.44263046561820    6.87860250166201    5.63238407980634
H        -2.25096567839599    7.04121884789543    4.93455433090601
C        -0.90610505138069    7.94246420676719    6.33551482065773
H        -1.29651328836761    8.93946960099592    6.19332284886539
C         0.13617889105714    7.72738659267187    7.22441286725275
H         0.55696656470104    8.55706225297467    7.77426456150603
C         0.63786553302186    6.45367336706461    7.41112686792798
H         1.44347635245429    6.28722930304310    8.11450554573682
P         1.31437080345729    3.03780571204280    4.15381250367744
C         2.05248334159442    2.14926389368640    2.74288952782723
C         2.30499461707812    0.79370030485132    2.92537161929875
H         2.05172920351847    0.34245926189515    3.87296717904915
C         2.88100185477278    0.05059668681389    1.91259307249059
H         3.07573102541029   -1.00126014589798    2.05899369566379
C         3.20513577929679    0.65650441914504    0.70938377911780
H         3.64826021775539    0.07735142535882   -0.08761270114199
C         2.96425147150465    2.00855659759631    0.52694729402814
H         3.22362093220733    2.48241360730137   -0.40897690904214
C         2.39114485707541    2.75817347931396    1.53909033829510
H         2.20280024619244    3.81241984290086    1.39143794953637
C         0.75159236850709    4.57949943754320    3.35686083931646
C        -0.27350972227013    4.45125754118390    2.42224448141444
H        -0.62662510677161    3.46007970275724    2.17826441130218
C        -0.81586740183414    5.56412669935236    1.81076167504759
H        -1.60735054089003    5.45115490776334    1.08361471324873
C        -0.34326809174553    6.82722633727607    2.13207804832588
H        -0.76577324897632    7.70073687459911    1.65766731545682
C         0.67175881792490    6.96516681022869    3.06241159529966
H         1.04107527517263    7.94795840283012    3.31756517901091
C         1.21461560286255    5.84991733291360    3.67665400510329
H         1.99676157636682    5.98251238629665    4.40841638348452
C        -1.56718919802181    1.20808923518577    6.69956593995563
C        -1.18722189216085    0.35323890926542    5.63596905883407
H        -0.85816245668247   -0.66454422891874    5.76352872989086
C        -1.32012766093409    1.00665073192025    4.38992260564408
C        -1.80459154634754    2.32166099956076    4.69510630900541
H        -2.11666831587696    3.04732855278907    3.96257540305457
C        -1.96505133746851    2.43346051399516    6.08743081774056
H        -2.38975760363441    3.26935704863838    6.61859325910308
Si       -1.86050783234455    0.61316818273702    8.45574226145350
C        -3.11763988343853   -0.82295185088782    8.30710614543933
H        -4.02389614290605   -0.51348000564927    7.79486014904665
H        -3.40322210043142   -1.18805746272329    9.28888313448059
H        -2.69830508625943   -1.65847374994044    7.75527257009615
C        -2.66724028998083    2.01254510087243    9.46671024642933
H        -2.02799170773285    2.88737739234988    9.51072369017071
H        -2.84970930350947    1.68882364191009   10.48631710727133
H        -3.62034285964080    2.31348762048437    9.04278494305693
C        -0.26058362501065   -0.02400767843485    9.26719573294577
H         0.57264653133302    0.03650543058496    8.57484407437127
H        -0.35863536337915   -1.06108037165389    9.57287746314722
H         0.00113455953494    0.55756224159291   10.14515044556627
Si       -1.41085640118471    0.03308536391836    2.78612018943462
C        -0.31540897540680   -1.52068138638380    2.93633905870718
H         0.48318299546732   -1.37823660158156    3.65584673364528
H         0.14228655600729   -1.77583241677596    1.98596818959600
H        -0.89817049723488   -2.37741684572873    3.26089970831570
C        -0.99076003303028    0.98235311102500    1.18697455975783
H        -1.68066770142267    1.80276846602855    1.01297705107380
H        -1.07149397612168    0.31328391451873    0.33544601511378
H         0.01894846176975    1.37846243220557    1.19224942092430
C        -3.24842479346487   -0.49325563507147    2.65663830494446
H        -3.56428082666422   -1.04422380784326    3.53762345800155
H        -3.41124059231562   -1.13047732238281    1.79263758131379
H        -3.90473854546817    0.36660905365481    2.55810371492283

