34
CSD_code = EPEBUX | q = 0 | S = 0 | Stoichiometry = C10H16Cl3N3OPt | MND = 6
Pt        4.17998324088040    3.47259388566046    2.35845716524141
Cl        5.46371234173030    4.55357147661398    4.03257305765331
Cl        2.37447015619899    4.95276365080562    2.84784142472742
Cl        5.79045261593635    1.75159847559609    2.00858801590473
O         1.82246079783330    2.23478027225411   -0.86923481835996
N         5.02575099189698    4.76388533290074    0.89691670274336
N         3.05230545724144    2.46575704647506    0.99053316444375
H         2.83493235589578    1.49169903159983    1.17782849460230
N         3.40497527333438    2.26807742408309    3.80299089825951
C         4.50877060589785    4.46170203809139   -0.45460106009321
H         4.96243324861583    3.52368133882488   -0.78934983457664
H         4.84032989026861    5.26097140076035   -1.12982219450190
C         2.98928000778750    4.32008288414863   -0.53808857905521
H         2.66085864318531    4.50119623198175   -1.56187911693058
H         2.47756226909873    5.02713099933322    0.11527515468290
C         2.55135398311124    2.90709532487302   -0.15983798134882
C         4.75343357431742    6.17338497508029    1.22284321437060
H         5.10662528901440    6.39132241154201    2.23025453396236
H         3.68889329590129    6.38793743519657    1.17922765395649
H         5.27568498810771    6.82327290201346    0.51449945392486
C         6.48927239067381    4.60512977705260    0.87838097105201
H         6.76177039199204    3.58866756035433    0.60124893576272
H         6.89285977941930    4.81533910549456    1.86865735086097
H         6.92926134979696    5.30046405162812    0.15755716088148
C         2.09836996541742    2.01190206311640    3.84713401758055
H         1.48301616873881    2.42834455256214    3.06021819371387
C         1.53624829674717    1.25459422919007    4.85942253313171
H         0.47332074897080    1.07513372096750    4.86037647495455
C         2.35472134555925    0.74564720867439    5.85566986786934
H         1.94343846367529    0.15689261621667    6.66112463020773
C         3.71288350110384    1.01006844001736    5.79159671872476
H         4.39373875260777    0.63473084708248    6.53827803079973
C         4.20305503175026    1.77610138161807    4.74774187967075
H         5.25917478729116    1.99937990819433    4.67477788518197

