24
CSD_code = EPEBIL | q = 0 | S = 0 | Stoichiometry = C5H14Cl2N2Pt | MND = 4
Pt        3.56624563001181    5.58793526973842    2.93557603984358
Cl        5.54215533364643    6.41018326735079    3.61669187223067
Cl        4.06942274544584    6.07780878739484    0.79537548308126
N         1.71027828234864    4.96675572044696    2.09664864690692
H         1.34660766269975    5.87542537433310    1.80214087838969
H         1.98852562369033    4.48395968897388    1.24046670963571
N         3.03104438843092    5.10173190257108    4.97693039623461
C         0.70136756480254    4.22609220105571    2.84722464624281
H         0.98034366690684    3.16931649237230    2.86227244667660
H        -0.28261270100228    4.30851624814669    2.36705118593100
C         0.60905282565805    4.74713619518462    4.28148895457987
H        -0.29807053644157    4.34767689588594    4.73774823148653
H         0.51938444760492    5.83421753933924    4.26305519367331
C         1.79907798765060    4.31544477841185    5.14163019589482
H         1.50221008300804    4.35361899038820    6.20023368064289
H         2.02893698402067    3.27390936573516    4.90110236652344
C         2.90748610407853    6.38510091147407    5.67426879129247
H         2.70605842010479    6.22907444978262    6.74109965894799
H         2.10004446369584    6.97785613908389    5.24725871429903
H         3.83941180301803    6.93803411859224    5.56236212814841
C         4.12782548578949    4.34414016508023    5.59161339401603
H         3.90110563121976    4.11697943909192    6.63977956082133
H         5.04240340167476    4.93190261147395    5.53650228640275
H         4.28449470193615    3.41268344808862    5.04817853809656

