41
CSD_code = EPEJOZ | q = 0 | S = 0 | Stoichiometry = C19H16CrO5 | MND = 9
C         3.07145869788845    5.49986153167477    5.09846612608231
H         2.39180931953743    5.65808704334644    5.94251911614970
H         2.98816196997420    6.33848568748394    4.40903337199067
H         4.10037146916235    5.43728811246616    5.46773257061499
C         1.37675563475490   -2.39676621482261    3.34757466912967
C         2.20463124764719   -1.56064753966138    4.28619281911473
H         3.26806488950398   -1.84011879454562    4.19552439004594
C         1.92123338258722   -3.48166434029991    2.65947524610027
H         2.93908340178803   -3.79585748049134    2.86365562136889
C         1.12147966168824   -4.24062497546395    1.77964178168867
H         1.53172519873178   -5.12546628411743    1.30887598742932
C         1.78190503641755   -1.71399375352582    5.75160239615330
H         1.85269616564172   -2.76257196203608    6.04630634489296
H         0.74449774159087   -1.39018635183015    5.86129008110905
C        -0.20805524223982   -3.88229170533301    1.56653157890390
H        -0.83863326158401   -4.49282085860088    0.93132683886413
C         2.68858161737584   -0.83697902473716    6.60900464547283
H         2.32614905636481   -0.80634872173671    7.63865507497876
H         3.69893095458138   -1.25945179372758    6.62911405888072
C         3.06738047860526    1.65006865387258    6.81317861044947
H         3.32176962684119    1.49242621324010    7.85168803098055
C        -0.76736324103938   -2.78706573524403    2.25743235178748
H        -1.82150219516914   -2.56240275311278    2.14971731829749
C         3.08624768963708    2.93501812040283    6.30184700906231
H         3.35834843951727    3.75312395042070    6.94869791842992
C         0.02607403729009   -2.04252800281437    3.12709960785687
H        -0.40304956237353   -1.22418735651814    3.69206772445125
C         2.74726477376264    3.14670963298023    4.96826383528807
C         1.35006827695528   -0.24065843622187    1.05805396666716
C         2.40657644355368    2.05819634788234    4.17176713359960
H         2.14746762281621    2.20769300609139    3.13708169107776
C         2.56550484559000   -2.00362830777274    0.09467784531839
C         2.40264204279652    0.77508397693630    4.69610983180535
C         0.28307981169969   -1.68941631197233   -0.47391299149956
C         2.72814666930628    0.55491189496930    6.03605867922168
O         2.04374680868937   -0.22404431358158    3.83699646493429
O         2.71771851013344    4.36035466657882    4.35444983559424
O         1.54270784679153    0.88545075067478    0.90791536566870
O         3.48989446019895   -1.91636621327719   -0.59407534158255
O        -0.15771936246666   -1.41902657107626   -1.50779115605512
Cr        1.06874903545194   -2.04184578648655    1.13165354967490

