77
CSD_code = EPEJOA | q = 0 | S = 0 | Stoichiometry = C28H42NO5V | MND = 6
V         0.06675744091741   -0.31324522332127    9.73169688987224
O        -1.38534441071592    0.43030461174875    9.52849143999092
O         1.14636187750915    0.06068615448054   10.88623901146156
O         0.77608990374250    2.50294119341576    9.59836272543956
O        -0.26109701569877   -1.78783733505338   10.00097222557484
O         0.83587540168066   -0.28728188840495    8.24963544485914
N        -0.81831836135148    1.67519319969024   11.84451183891698
C        -2.67249374678049    0.39665814044576    9.82294154726954
C        -3.62347150648135   -0.24234718156726    8.99062126799145
C        -4.92050157037077   -0.37422892395785    9.47010094924632
H        -5.65532617522596   -0.89253857314742    8.87662925689350
C        -5.32877347781356    0.12943886491278   10.69469868898601
C        -4.41471737822455    0.85887196151367   11.43802101115780
H        -4.72968738090755    1.32151883112818   12.36373669576260
C        -3.10714631993306    1.01709634094815   11.01445136143501
C        -2.23239894353032    1.99527084391484   11.76630318909308
H        -2.65422836787420    2.14006891992858   12.77996138204447
H        -2.33486859915323    2.95484784306849   11.24437659947706
C        -0.55948477066676    0.76072338473893   12.95296781770420
H        -1.09310909419510   -0.17377808760661   12.71843864206923
H        -0.97754347936981    1.16463087385211   13.89690866824272
C         0.89815225835115    0.45152735595633   13.16949522919637
C         1.44593381378515    0.50422652539391   14.43986731177145
H         0.81915143377034    0.78838310603673   15.27422196223310
C         2.77830578106946    0.19407740512905   14.65605326499879
C         3.56001534475331   -0.17404846853963   13.56772666903394
H         4.59328504303168   -0.41469701876119   13.75815168906961
C         3.06347375531947   -0.24054649901184   12.27559712218692
C         1.70131216736241    0.08283321526352   12.07284039815733
C         0.01459183236485    2.86419391451248   11.85214502500099
H         1.00869189103255    2.58523312439810   12.20768260467671
H        -0.38340095466918    3.65273492915720   12.51823616223043
C         0.16598960802639    3.44780512378008   10.44579495707361
H        -0.81552597942882    3.73342385681403   10.03370275206945
H         0.78644754598732    4.35957272306413   10.49926233500870
C         0.87369782528570    2.95628610801983    8.27257393489525
H        -0.11566451971444    3.18786012013552    7.85524816756513
H         1.32790247439249    2.15022100351970    7.69858404175172
H         1.50180796836181    3.85654922811768    8.20977094256760
C        -3.25778700496475   -0.76842866873161    7.60333004104784
C        -2.52226027620514   -2.10698987472929    7.74808693862543
H        -2.22267239988795   -2.47740897699384    6.76860375529462
H        -3.17693554709614   -2.84275413681579    8.21175984512672
H        -1.63689747962103   -1.99678078698517    8.37397899650293
C        -4.50125770919154   -0.99836507697112    6.72984894667723
H        -4.18608780944099   -1.24754449940758    5.71845918477517
H        -5.11881632563988   -0.10394107751471    6.68309175336974
H        -5.10147359218508   -1.82728884119905    7.09547787661482
C        -2.37314158179340    0.24362208377233    6.85792758374547
H        -1.39969981442218    0.35090127613792    7.33296612912454
H        -2.86121689186716    1.21755998847435    6.82813843094763
H        -2.21520008467220   -0.09086957061907    5.83311816748957
C        -6.72885638008237   -0.07016254523014   11.19398824644606
H        -7.20004788951185    0.88843170856065   11.40847486441387
H        -6.72083854883161   -0.65031039176042   12.11637170712489
H        -7.33266706122740   -0.59790676057948   10.46012063190651
C         3.36972881357185    0.22946198206642   16.03415942679390
H         2.74269092777194    0.80468432931887   16.71076307831947
H         4.36509028734207    0.66915262101819   16.01732749012627
H         3.45827039462368   -0.78257068821084   16.43032073472845
C         3.92359953571042   -0.67131627802094   11.09308883147881
C         3.90989528354412    0.42229461346810   10.01417862404258
H         4.27842097516367    1.35993971663146   10.42834028619162
H         2.90535735655228    0.58623706431938    9.62782516763108
H         4.55766077519798    0.13431669331835    9.18683174776803
C         5.38531740652328   -0.91654673227167   11.48746278392741
H         5.46888461678696   -1.72183852383525   12.21317855607795
H         5.83875207709185   -0.01678647232251   11.89736639608611
H         5.95097849311937   -1.20525970197609   10.60363796455514
C         3.36118406149248   -1.98556235259874   10.52806149189898
H         3.94618473798251   -2.30021298388897    9.66480285864043
H         2.31855087196545   -1.87731353349735   10.22375466279881
H         3.41595219692938   -2.76704947136748   11.28420425475845
C         1.32444027909211   -1.18086161356539    7.32388238436965
H         1.04333087341179   -2.20603274431915    7.61414506387637
H         2.42138965864403   -1.11160960130664    7.26996014982125
H         0.90943545949754   -0.96231987611018    6.32834372389155

