36
CSD_code = EPICOW | q = 0 | S = 0 | Stoichiometry = C17H13HfNO4 | MND = 13
Hf        6.11989652799999    1.83950477289825    5.63642868122992
O         6.29862968390425    1.08589307700157    3.71612862651558
O         7.25380111002173   -0.28902421744601    2.22303838134812
N         7.66844432595698    0.29080242074591    5.63642759139327
C         7.87863951490310    3.39883388641932    4.56907193129497
H         8.78564977115541    3.11419445030144    4.05330700138033
C         7.76565083030305    3.67965302154107    5.94730051407090
H         8.57030901142039    3.65724417915383    6.66967226639127
C         6.45456982348728    4.15412009540878    6.19335914076633
H         6.10728233165888    4.58078490140865    7.12505000877003
C         5.76392188117083    4.17259568727278    4.94918635532280
H         4.81068882553800    4.65127930158929    4.76532670113346
C         6.65842605505386    3.73355559518579    3.95306223201134
H         6.46596922601493    3.72082164916400    2.89164071526235
C         7.11556060724037    0.17177816228968    3.33266345590035
C         7.97048303415642   -0.33716399182094    4.50367276566547
C         8.94463010333227   -1.32479444380627    4.45888293815488
H         9.15883231313596   -1.81144007601875    3.52061038168378
C         9.60777852717316   -1.64846082086018    5.63634088279801
H        10.37141112473430   -2.41200332920874    5.63629959079872
O         6.87315217091130    1.66034488649090    7.55682971153569
O         8.24834644235383    0.70532903770058    9.04971496292639
C         4.56057291399678    0.08085527360283    6.70407184416944
H         4.84515379788103   -0.82607388108355    7.22001261859571
C         4.27974723955470    0.19358189832668    5.32582253534159
H         4.30214576795151   -0.61121897153476    4.60360539016522
C         3.80515229900544    1.50458034290446    5.07954492897576
H         3.37846446810949    1.85167637996683    4.14779445031264
C         3.78668908535123    2.19547316345395    6.32356861241885
H         3.30794577462009    3.14870945229097    6.50724809819266
C         4.22572578625604    1.30114981524318    7.31986036762521
H         4.23833501390880    1.49376217181970    8.38125496358519
C         7.78747973820009    0.84358672381086    7.94016343320995
C         8.29648233120861   -0.01124149375370    6.76913237367113
C         9.28415364013840   -0.98535203188957    6.81383589434234
H         9.77087890219056   -1.19953708856854    7.75206965304038

