62
CSD_code = EPIKEU | q = 1 | S = 0 | Stoichiometry = C18H29IN7NiS6(1+) | MND = 6
C         2.99912169351230    6.56602346005218    7.76289969362186
C         2.76912932695924    9.29128613414197    7.95082080687297
H         1.92717834323633    9.20265210220916    7.26970762138154
H         3.27857081784384   10.23831832026986    7.80454791971551
H         2.43591226112875    9.18999452632940    8.98026958814588
C         4.97541920301824    5.35430121426089    6.99841468852204
H         5.06506408587537    5.87445707387308    6.04432498003534
H         5.29284239032138    4.32036564726640    6.89269471345907
H         5.63527812100954    5.83943976097025    7.72305467205769
C         2.85074993243552    3.21465846324600    7.24732861144714
C         3.12442747121168    3.12820149139965    5.78551408026139
H         3.30033822564372    4.11404655844797    5.36355980971439
H         2.27244944467030    2.68698259968651    5.27285170051328
H         3.99157012461423    2.49646669349067    5.59201355273261
C         2.38153953476045    2.03334985423073    7.97842988914273
C         1.80540139307372    0.92943654983191    7.35210395842164
H         1.63521181365623    0.92944345772542    6.28896417285548
C         1.45338012570993   -0.17149534014777    8.11255936958518
H         1.00149373757578   -1.03280843499604    7.64675294429544
C         1.70977340905960   -0.16699252003480    9.47196859567465
H         1.46342931844653   -1.02705522939909   10.07096166240262
C         2.29021217843418    0.95997599139805   10.05247606265513
C         2.67023912948293    1.02757195928803   11.46670540766001
C         2.83755086967388   -0.22652640118526   12.25384371654601
H         3.71534424625554   -0.77933325836639   11.91861975999714
H         1.97062447443887   -0.86944060625603   12.11908248138353
H         2.93672375050345   -0.00988651710817   13.31404841007764
C         4.70789998492042    1.93829534179207   13.49533219162559
H         5.04791094265516    1.25994303621192   12.71746363072807
H         4.69934644003258    1.43062089533776   14.46039583117111
H         5.41176165135360    2.77339881026493   13.54805215525148
C         2.77819482011609    3.36832676008388   13.92497467000201
C         2.49748988138580    5.05782667391918   16.06606364310026
H         2.26869744134179    5.87769253607032   15.39059970897595
H         2.96494733572208    5.42807393429204   16.97283305438135
H         1.59592711037414    4.49930937352348   16.30271380625958
C         2.71747606411259    6.22639353241248   11.40799124459506
C         4.67648990064317    7.99345326778310   12.23454350500610
H         5.08624610828496    7.22064090099245   12.87816106509599
H         4.83939892359366    8.97413420101496   12.67160668291564
H         5.11899169320288    7.94319564943694   11.24386436303521
C         0.26895125612409    6.43944845337420   11.47870381998718
H         0.46166227182899    7.33761238911964   12.05878583277745
H        -0.37376539852708    5.77637336880659   12.06139728698011
H        -0.23502533369935    6.71642142892522   10.54959195119864
N         3.60682787812435    5.39975243240424    7.47287775711454
N         3.01925908105639    4.26623866726883    7.97927511971065
N         2.59036060588574    2.03734459811274    9.30658139086018
N         2.86382647231943    2.22401133063195   11.91681590911171
N         3.38539966228909    2.43347387812228   13.16881864553973
N         1.50165674535845    5.75698109466775   11.17977480717335
N         1.37881341620148    4.51183633875303   10.54609626989005
H         0.87643006067642    4.65442678888554    9.65866448084018
H         0.82564823274284    3.89543096862664   11.15757927130274
S         1.40300609605094    6.59960878082191    8.19625476667880
S         3.97927627177645    8.00421712409390    7.57477808123981
S         1.23009037108886    3.84913415471780   13.59733767277758
S         3.69948293113480    3.95285406772138   15.29404244699075
S         4.09417602561618    5.33579304809094   11.03540023274095
S         2.88081278323190    7.80798937145118   12.11580712209756
Ni        3.29050923895268    3.56416861597491   10.12369057464727
I         5.62664761147845    2.75354463566163    9.80821213904579

