71
CSD_code = EPIMEW | q = 0 | S = 0 | Stoichiometry = C24H42S2Si2Ti | MND = 12
Ti       -2.78817688172305   -7.50075258104975    4.19846898949657
S        -3.07744553149711   -5.13244332110832    3.92495720187686
H        -2.53652969119531   -4.71440033482219    5.06461339864785
S        -0.48326338132677   -7.02135135887480    4.70400042804520
H        -0.31734467217387   -6.02307999352548    3.84153741767573
Si       -1.63569332058056  -10.87037115758548    2.91720467958865
Si       -4.05183834808026  -10.93310846298955    5.99543876158936
C        -3.79904997561362   -8.83927602935621    2.54577195353572
C        -3.90059903384763   -7.51859453435441    2.05862230004641
C        -2.58078329656375   -7.04147989721529    1.80675199510852
C        -1.66986353718466   -8.04793476935058    2.18790411294129
C        -2.40930771417015   -9.16375865341157    2.70450339334618
C        -4.88728755249395   -9.86348750504836    2.47427740300826
H        -5.87085652702752   -9.40631090931869    2.39929913687570
H        -4.86163875807670  -10.53605756080122    3.32387820543638
H        -4.73239985839213  -10.45983527374855    1.57115921427083
C        -5.14484683980922   -6.78486940360827    1.65355276254022
H        -5.18715817164442   -6.69978458129478    0.56558212345288
H        -5.14991074326143   -5.77471950215747    2.06786399705988
H        -6.04248489143482   -7.30171855288581    1.98711218088579
C        -2.23498439244600   -5.80553356843084    1.03329504300263
H        -1.35585248641179   -5.30795912697670    1.44369762116612
H        -3.05799521196833   -5.09508223427246    1.04203407524191
H        -2.01958077119055   -6.07721208436276   -0.00323876311067
C        -0.22482962026880   -8.04941643648754    1.79157253984219
H        -0.12451509628544   -8.55766331960855    0.82972275636716
H         0.39819530190511   -8.56338754363775    2.51691920426907
H         0.15049915167729   -7.03432158298861    1.66972816402567
C        -4.70492948965837   -8.09026176202512    5.43842072622691
C        -4.25307263491848   -6.87876474129203    6.01702019106038
C        -2.96256719527009   -7.10390791847722    6.55548468055679
C        -2.62227126547279   -8.46163573681254    6.31114591157415
C        -3.71309960971994   -9.10799772184501    5.64544247073905
C        -6.13806719504363   -8.25301348135665    5.02981150324017
H        -6.77247478118103   -8.13486416188746    5.91265611204600
H        -6.33498781379455   -9.22876273389132    4.60512486590174
H        -6.43331911936453   -7.48117356170393    4.31703317778377
C        -5.13396872390629   -5.68373844841934    6.22754684733702
H        -5.92189684679156   -5.93940764736235    6.94103891608479
H        -5.60859831010647   -5.36947241854880    5.29744947063143
H        -4.57742331921915   -4.83783545739635    6.62478990822537
C        -2.17391529082934   -6.17887526784672    7.43262480282240
H        -2.60545923887190   -5.17928816705018    7.45240281370235
H        -1.13758883475458   -6.10635590539889    7.09710093438093
H        -2.16699286156249   -6.56691980177512    8.45362094626808
C        -1.42959746905439   -9.12443619830863    6.92724139099333
H        -0.52668548716554   -8.53143785823220    6.77530994900765
H        -1.27242339779983  -10.11561267782971    6.51322963031709
H        -1.58147631126140   -9.21376915221296    8.00503489035175
C        -2.67842095675966  -12.26499452159419    3.72944319241042
H        -3.65784667482786  -12.35776364349565    3.26381769424291
H        -2.14952432381667  -13.18834315284024    3.47839799791774
C        -2.83627095141423  -12.21612300225477    5.24883093808542
H        -1.85013490038002  -12.09446097526275    5.69690453302259
H        -3.19165996470829  -13.19316427620821    5.58776168120153
C         0.02057169907351  -10.76831000698933    3.87747122655968
H         0.86810152108163  -10.78653453340272    3.19884134910130
H         0.13898965145223  -11.61248986122760    4.55034051461732
H         0.09046135558427   -9.85930766854005    4.47094694948529
C        -1.29609817318139  -11.52948164474053    1.14585419938199
H        -0.79080034998019  -12.48910533230234    1.18396760712446
H        -0.67007520440991  -10.85367613943219    0.57333762437844
H        -2.21822230392880  -11.66771224610034    0.58946381092514
C        -3.91055249691267  -11.11923105901604    7.90323650399545
H        -4.52786993075254  -11.93918815469923    8.25672531492959
H        -4.24035644695862  -10.21952368031158    8.41422400163649
H        -2.89395661998293  -11.32243333087671    8.22125370111099
C        -5.82842605137141  -11.57711603354253    5.65602901158000
H        -6.11649294628541  -11.61512682793342    4.61114820767005
H        -6.57212301175815  -10.99204425902444    6.18689264355029
H        -5.89243587293916  -12.59332855125154    6.03465086159344

