69
CSD_code = EPOFOF | q = 0 | S = 0 | Stoichiometry = C32H24N6NiO2S4 | MND = 6
C         5.93189573763829    3.99527387939185    1.61001396560353
C         6.33681911340627    4.62730482085186   -1.09124113104536
H         6.63852248524046    3.59134826804809   -0.95026048599223
H         5.65971371666452    4.71324510946649   -1.94001665950687
C         8.38626986636074    1.59835537207845    2.03288250813380
C         9.23123765325916    1.28473290380074    0.91189976966538
C         9.32012635658459    1.75345291953494   -0.38963531417266
H         8.64942142903493    2.51781370534498   -0.74617278370061
C        10.29753624333245    1.22244671711024   -1.21625702396364
H        10.38268113251987    1.57788462583055   -2.23179547745588
C        11.16968856713022    0.24484576500706   -0.75968394853133
H        11.92182244501701   -0.15038584660395   -1.42548362793044
C        11.09817943446470   -0.23519072516208    0.54301765074934
H        11.78186931032098   -0.99259962104730    0.89477105783973
C        10.12954370643089    0.29162028194797    1.36849380299063
C         8.81387754173416    0.74676266578790    3.14780878711698
C         7.50290188826577    5.55019699433678   -1.23047677703723
C         8.58105722608732    5.46873102511679   -0.35567536014761
H         8.57146953164137    4.73488098116137    0.43599875269195
C         9.65758005211517    6.32559843104221   -0.48959753028525
H        10.48807852032565    6.25118575897809    0.19646441109448
C         9.66948890875785    7.27573160072474   -1.49708495324676
H        10.51078402510757    7.94470399349138   -1.60138812753062
C         8.59693319539733    7.36829634931767   -2.36728029994871
H         8.59791570837737    8.11077929535195   -3.15171199697439
C         7.51779237670019    6.51306369721629   -2.23231606645354
H         6.68041303502476    6.59074097760046   -2.91113515798121
N         6.95112215359585    3.21384922297153    1.30954047967887
N         7.40826294281997    2.44277847056470    2.26256874155082
N         9.85558255932112   -0.00451779754375    2.69883733513345
H        10.35547536341697   -0.68074794108841    3.25291289477933
O         8.31000434081121    0.72598482616587    4.27043991962807
S         5.15440748171523    4.04153242711284    3.11447966561707
S         5.29656800398820    5.03368838325875    0.37584558985088
Ni        6.81476585786953    2.43209109429603    3.97095922696530
C         7.69724336038224    3.99542853576265    6.33187838567929
C         7.29229012114143    4.62726688058308    9.03315449199079
H         6.99059532465532    3.59131124711959    8.89215611279845
H         7.96937178969661    4.71320362299964    9.88194556622440
C         5.24307743136520    1.59834965641408    5.90891939922990
C         4.39801418092279    1.28476824739494    7.02983566277702
C         4.30894125298623    1.75362169829136    8.33131250477698
H         4.97970950946259    2.51789495070887    8.68792467254191
C         3.33145564486883    1.22264747579304    9.15786328881073
H         3.24616218679863    1.57818938197982   10.17335567877526
C         2.45940409833800    0.24496133160373    8.70127072511086
H         1.70705879712359   -0.15006981330682    9.36694818221898
C         2.53110834352148   -0.23521531904756    7.39862798406605
H         1.84727088637182   -0.99243319395639    7.04675226356761
C         3.49976069041434    0.29162972821270    6.57319639286902
C         4.81561385388027    0.74669139064692    4.79399705201728
C         6.12621534790877    5.55019877453398    9.17229888730444
C         5.04802074742796    5.46862108559170    8.29755328103330
H         5.05784402495188    4.73508460282346    7.50557740269861
C         3.97146935964372    6.32546190947392    8.43144637475870
H         3.14126232272918    6.25141191459178    7.74498064157298
C         3.95962673535401    7.27577960364124    9.43875733833186
H         3.11834283448172    7.94477882851589    9.54300284697099
C         5.03222854643250    7.36846671842085   10.30888185810942
H         5.03099063916995    8.11060961491917   11.09365104183632
C         6.11133870545372    6.51317641792544   10.17403311057578
H         6.94846197133284    6.59055976011359   10.85321037925010
N         6.67809036555761    3.21390777183084    6.63232913153624
N         6.22103276855820    2.44282959075968    5.67927120013781
N         3.77392828626676   -0.00463912141506    5.24292016144293
H         3.27389970313449   -0.68067457742063    4.68872628334775
O         5.31961470115343    0.72587012721095    3.67142042555440
S         8.47502270636281    4.04144861412532    4.82754804876241
S         8.33262485165315    5.03368391166373    7.56613138613486

