72
CSD_code = EPOLIF | q = 0 | S = 0 | Stoichiometry = C30H35N5OPd | MND = 4
Pd        5.41686300469385   15.79065005521982    3.08854527439214
O         2.74956926214122   17.90517622630967    3.01556298461045
C         6.11276884356875   17.53784429154747    3.72406212119280
C         5.30994352786317   18.34033268670322    4.53692443019891
C         5.72927367152947   19.62489076674661    4.85556327292867
H         5.10595309219067   20.25254841928246    5.47756200810330
C         6.94026094197022   20.10649655030963    4.38640626072499
H         7.25688439093705   21.10672621320345    4.64414973033559
C         7.74387928626578   19.30726622291456    3.59295807834471
H         8.69220129584134   19.67881362436796    3.23112793717406
C         7.32907203015024   18.02489447429328    3.26050192528813
H         7.96417958560293   17.39798575735283    2.63630067973588
C         4.00928097898822   17.78410414280847    5.07348568819761
H         3.44278951793561   18.58369232189169    5.55731952374219
H         4.21945519871870   17.00536540765530    5.81455773549899
C         3.12346696037634   17.22859661629500    3.95735776083767
C         1.61953000871893   15.38763240027375    3.36571801065805
H         0.68058819681700   15.44998234381645    3.92479671268734
H         1.81528377526905   14.34263749603837    3.12571844460438
H         1.52086467462938   15.96853466085712    2.44854789039102
N         4.53138942042402   13.99266413665587    2.13901687371882
C         3.78254481901507   14.29669983691237    1.06616902506489
C         2.93353247755518   13.35409978780874    0.49473982331327
H         2.32251311060331   13.63061761791317   -0.34759388998159
C         2.84464651517107   12.06307353172322    1.00770074538009
C         3.64798619864043   11.77673263130956    2.10526078126092
H         3.65410945437908   10.80557942529588    2.56831092867636
C         4.46345669205793   12.76632465394899    2.63090550296925
H         5.09021875196267   12.54639489447247    3.48584853567078
C         1.89838219908374   11.06040897271344    0.37510581189371
C         2.27359736264898   10.88263481073372   -1.10286215517059
H         2.17019076371348   11.81109384660361   -1.65790969927688
H         1.62519932689656   10.14049380492832   -1.56241396597420
H         3.30323233781196   10.54299952203306   -1.19253347429274
C         1.96212063948974    9.69241990037307    1.05779927714016
H         2.96088434533604    9.26774200206689    0.98985338542812
H         1.27313552539284    9.01015254474949    0.56503703084578
H         1.67326104538772    9.76161664349183    2.10388921187246
C         0.46423938193117   11.59697038076393    0.49162599043366
H         0.19727517474260   11.73857908590208    1.53690460887651
H        -0.23284256204266   10.88764505027510    0.05198530222973
H         0.34935511827346   12.54815478746744   -0.02143532709976
N         4.59384518132054   16.54097732262971    1.30633511376413
C         3.89530584633617   15.67839703926634    0.55615711235599
C         3.30565742472546   16.07870484043702   -0.64192913899533
H         2.77680476393222   15.35454763612448   -1.23544960694905
C         3.39770200307174   17.39380315898837   -1.07648677131811
C         4.11566026982722   18.26528002254160   -0.26055119690876
H         4.22932589254769   19.30594767223492   -0.51487906860281
C         4.69572991108240   17.79959966311342    0.90323257727085
H         5.25606703660923   18.47174208886641    1.54063730899493
C         2.75686325222581   17.89481876513063   -2.35637934911839
C         1.73159314887204   18.97755427885507   -1.99139313148518
H         0.97213316134485   18.57048329859450   -1.32731444892385
H         1.24397038063923   19.34596427653142   -2.89098347675185
H         2.20432534362115   19.81696160933119   -1.48992417679119
C         2.03955080877769   16.78643196732929   -3.13134228462968
H         2.73072299491657   15.99670801066997   -3.41838397698763
H         1.61193722737596   17.20194689605388   -4.04096225388574
H         1.22694923409571   16.36079792739005   -2.54656737584683
C         3.84733981456299   18.48883857439157   -3.25886829354751
H         4.34467052882844   19.32816821230031   -2.78152347266057
H         3.40748686393954   18.83933018412551   -4.18961200892242
H         4.59652808661478   17.73555055419670   -3.49402551874756
C         6.46909431632079   14.98767233968522    4.68649187485677
H         7.09660497373909   15.61526839598065    5.32636641177803
C         5.31503423946879   14.47539460037496    5.30505787901202
C         7.18481596175594   14.11192549260183    3.82908953439564
N         2.71221664655743   15.94012972355772    4.13465555752568
H         2.96239043414500   15.43508082926573    4.98121072207592
N         7.77114463188308   13.37950541463107    3.15723730541257
N         4.35079327831420   14.09290065868257    5.82073336099376

