115
CSD_code = EPONIH | q = 0 | S = 0 | Stoichiometry = C37H63B9N3O2Y | MND = 8
Y         2.73266313516240    4.96781630349407    3.71895042899388
N         2.70027317883048    3.47532913941950    2.33795563505505
N         2.95158414220879    3.99717627947516   -0.00299355044933
N         2.42388408620732    1.92449721428012    0.57393179192936
O         2.65542820620983    2.88227698885925    5.56331380727417
O         5.38173459648419    4.78600563007588    4.51600573235339
B         0.79761965438023    5.96399273061817    5.19370789476128
H         0.16140633451725    4.97198264453309    5.43162302890961
B         2.53418580459093    6.34008174491567    5.56183696482084
H         3.27500501114005    5.72804007161366    6.29000936025277
B         2.97339109709324    7.42388579840044    4.12963655848497
H         4.02265657277184    7.60419620107105    3.56393646963333
B        -0.14782079268126    7.49963661338417    5.40699854174634
H        -1.29211209101634    7.42089642805745    5.68504194467045
B         1.23338625852585    7.17199034991728    6.43518227374175
H         1.12430268289839    6.96096828349965    7.59624393628528
B         2.64490146638531    8.10023691335194    5.74529261451417
H         3.50659487807672    8.54273237226104    6.43029667937029
B         2.04167940294426    8.96221766744399    4.33082481182612
H         2.48280447371419    9.94155998219846    3.84106085602626
B         0.34959415857129    8.57445324648784    4.12155103980406
H        -0.39391400761344    9.19427296905380    3.44688398305299
B         0.98699375884469    8.81298577751479    5.73706395639519
H         0.70495778657047    9.73740100076970    6.41229944155452
C         2.68312513414819    3.18867933033314    1.12403569965311
C         2.82363278971449    3.23848041581608   -1.15538823868086
H         2.97820263345537    3.66745626527022   -2.12583919287162
C         2.52308187599438    1.97778034169636   -0.80421031793313
H         2.35756411158235    1.10928028967857   -1.40950054568095
C         3.07714165317712    5.40272475631067    0.02541608322486
C         2.00140891510703    6.19832656126914   -0.39384919926421
C         2.15326806486717    7.57823605653077   -0.37569371784639
H         1.33755125201470    8.21292467328008   -0.68490671389133
C         3.33753081212551    8.15480380145481    0.04207007780587
H         3.43782690961689    9.22965562649616    0.05413097339636
C         4.39256770455907    7.36072261589818    0.45234561097777
H         5.30875030857527    7.83457939446626    0.76385000293629
C         4.28403877768985    5.97591771594327    0.45553757071867
C         0.68417814734091    5.57007518009806   -0.79199715803745
H         0.86350434145522    4.53396224770469   -1.09373426798510
C         0.01200443067399    6.27906260727217   -1.96802059607825
H         0.71199669020671    6.40295907388242   -2.79155048302019
H        -0.36403832731209    7.25782462461131   -1.68180945201952
H        -0.83152347940726    5.68808285900062   -2.31889249612898
C        -0.23745664392302    5.55115933138102    0.43110334189770
H        -0.48095644111965    6.56815556515901    0.73231669504044
H         0.25702159616871    5.04379485427969    1.26290732379991
H        -1.16426884851966    5.02873109482702    0.20083278502908
C         5.45488341181399    5.08034705039791    0.80766687308103
H         5.07479896786881    4.23986254865524    1.40320946293557
C         6.07731185420281    4.52742205885246   -0.48081426348162
H         6.41235249469158    5.34579323144675   -1.11569560813664
H         5.36144131871492    3.92975482957309   -1.03782586349871
H         6.93449470471139    3.90089381344629   -0.24317757662603
C         6.53055492648836    5.78691371355326    1.63029201254763
H         6.08716107813571    6.28821739039897    2.48730500186917
H         7.07025953897019    6.51453357774341    1.02746755092046
H         7.24994665025840    5.05440804248632    1.99093891706779
C         2.06762621679922    0.78980812344970    1.33002112173923
C         0.76782766367389    0.67841261183186    1.83216897820898
C         0.44354672263339   -0.44774467596492    2.57799587250075
H        -0.55659920635814   -0.56132098718686    2.96883824361896
C         1.38125932290348   -1.43265791382557    2.81855627264719
H         1.11211014715509   -2.30375622069267    3.39770327785028
C         2.66662967580960   -1.30552054090895    2.32373624248024
H         3.38819398145625   -2.07973921324635    2.52941728590952
C         3.03037403755283   -0.19814444791686    1.57306665785596
C        -0.26318999672751    1.75285299268937    1.58080745751655
H         0.16121687178189    2.48371489032593    0.88786205588489
C        -0.59610636762218    2.48123285872072    2.88599322050105
H         0.31043147107782    2.93003669033699    3.30273663758636
H        -1.01898413836388    1.79254768605151    3.61434392308488
H        -1.32288359315330    3.26939758065084    2.70071321310300
C        -1.52572966110263    1.17499353698231    0.93739520627929
H        -2.04192723209843    0.50048523367830    1.61556391237877
H        -1.27470635858276    0.62608056714977    0.03218001766408
H        -2.20978336802998    1.97895142432648    0.67480141135898
C         4.44393960110870    0.00482416662223    1.07743528655707
H         4.40292716059092    0.56921437594492    0.14074023513585
C         5.19075333676415   -1.29874525618158    0.80151747525334
H         4.59836640458587   -1.95505963521368    0.16798083260950
H         5.42741294912265   -1.82254413640491    1.72437825645687
H         6.12731487449860   -1.08279591982380    0.29179800225085
C         5.19976637411937    0.85421012886381    2.10594160765324
H         5.28612319152447    0.31278984317749    3.04641795379329
H         4.66524849482509    1.78528443134803    2.28907527687953
H         6.19918875403588    1.08576054170074    1.74402318086399
C         1.58379679928318    7.63495733880618    3.30977476820229
H         1.57453843167792    7.78237430428081    2.22740691621032
C         0.40727366204730    6.84474105248476    3.89162180333672
H        -0.34171048911539    6.49945892303312    3.17642706715718
C         2.63928831531017    1.52755453265418    5.11244661691267
H         2.57729975480557    1.54960239853755    4.02213792156872
H         3.57412473098445    1.03355132321695    5.41422344512162
C         1.43122446328485    0.84182775993719    5.77883658776082
H         1.75094247871873   -0.03938037544913    6.33371316644626
H         0.70010108997716    0.53081801221581    5.03794626964897
C         0.87614103287880    1.91870904920806    6.71969617589251
H         0.04551703134114    2.44644194482164    6.25210605268970
H         0.54982891434478    1.51962550421379    7.67675250283298
C         2.06256243433112    2.86975979040013    6.85751250465310
H         1.78228696640617    3.89016770593646    7.11629705686363
H         2.78346186192518    2.48063226376201    7.59276637678884
C         5.94616030967778    3.51290005179747    4.79296639057264
H         6.91870963010374    3.42562268483744    4.28562525410800
H         5.26387618021358    2.75299479972589    4.41299148833345
C         6.13069813120687    3.47802504553171    6.31465940752892
H         6.97376039485796    2.85434850549551    6.60452993982853
H         5.22879012224239    3.09215559739102    6.78606561535612
C         6.33520357026687    4.95968621134723    6.67547490084129
H         5.60555888837362    5.28553311036918    7.41388835947156
H         7.33185375533892    5.15456096117309    7.06621862808780
C         6.11260090742520    5.69015308017525    5.34093970663468
H         5.53238600784433    6.60681921311851    5.44219920818466
H         7.07692014543201    5.91333658458073    4.86229226061909

