116
CSD_code = EPONON | q = 0 | S = 0 | Stoichiometry = C37H64B9N4OSc | MND = 8
Sc        5.46160744589055    6.49603422825965    4.38215380092946
O         3.59882229066405    5.68941505506124    5.69396499039230
N         6.59265865340080    4.94686533880612    4.93434463526437
N         8.42035989529195    3.43340795148681    4.65481094657809
N         7.85250458344947    3.96891222479609    6.74124100213917
N         4.29198807731714    5.30255446208264    2.52985719477495
C         7.49485443040176    4.22656782172576    5.38839502086677
C         9.26728241733264    2.76875129929602    5.52630221643210
H        10.06576883843582    2.15038587650868    5.16481071873937
C         8.92865631067249    3.09679925795233    6.78074043408653
H         9.38006464054806    2.81558744468172    7.71092846806109
C         8.32438916198186    3.11114900821977    3.28699950152279
C         7.81808399268232    1.85528016511476    2.91574853951859
C         7.70491211287973    1.56010976394185    1.56457183666716
H         7.30105179348613    0.61066876546691    1.25157773611306
C         8.10794153353680    2.46923983550556    0.60605155023583
H         8.02069178289625    2.22196510959429   -0.44194179265171
C         8.63622874036117    3.69005797628629    0.98346530929757
H         8.96958883703243    4.36907164972476    0.21573989619187
C         8.75049560858450    4.03679659245666    2.32273225291949
C         7.36799843403661    0.86083045834353    3.96532012751545
H         7.97975257906536    1.00346221434870    4.86111253187754
C         7.53777886379052   -0.59472137782645    3.53031853593497
H         7.39644367158232   -1.24999504969444    4.38749975633684
H         8.53520894816119   -0.76314000555502    3.13056877376517
H         6.80601083463179   -0.87339051416430    2.77589240616047
C         5.91034035923317    1.13662318179433    4.34650285724139
H         5.80612515287418    2.14967093958969    4.72993130103687
H         5.58414555855222    0.43787686350256    5.11379508827474
H         5.26645124430021    1.02175979514005    3.47650406657297
C         9.34662153109091    5.35774748681488    2.76048095451941
H         8.66509878286931    5.79550360139739    3.50459139953476
C         9.52574810969669    6.35885498214432    1.61957151817183
H        10.33533658235643    6.05179604443533    0.95952907595674
H         9.77723825167491    7.33396955824569    2.03047766827860
H         8.61942746191241    6.46282417894356    1.02687516574680
C        10.71258323098001    5.13358831492479    3.42156282548925
H        10.62799187247275    4.53291206353396    4.32118828910047
H        11.14983462124338    6.09158280688214    3.69286312983960
H        11.38504100533447    4.62939783729408    2.72904915822331
C         7.15132034679790    4.32710270875149    7.91069135830076
C         6.48645629998646    3.32912523813167    8.63944832624250
C         5.85715872374759    3.68010661799856    9.82759445203506
H         5.35706441560505    2.92194027763901   10.41198628885989
C         5.86903579437876    4.98459982790328   10.27921076029099
H         5.37455661117766    5.24065109114528   11.20482302792504
C         6.52606819774468    5.96032765169213    9.55199457778978
H         6.54194066792794    6.96870583525759    9.93043778248544
C         7.18345077187659    5.65390040964329    8.36968226548164
C         6.46106366911164    1.88201852911751    8.19514059209101
H         6.91791601402821    1.80423002895272    7.20569362015923
C         7.27229338613428    1.01763503462582    9.16532914386201
H         8.29014048700205    1.38841370915142    9.25669719653932
H         7.31187483359336   -0.01027433589153    8.81085009044644
H         6.82044969926821    1.02310118048911   10.15425578921646
C         5.03391034582466    1.33943101197467    8.08597934357028
H         5.06069298454506    0.30406560275881    7.75182549043406
H         4.45444504385025    1.91849738487692    7.37147181339217
H         4.52484078656067    1.36803466088342    9.04576464389345
C         7.97673808828533    6.69344876586420    7.61215129265823
H         7.71310697345415    6.59441238542496    6.54922037989805
C         9.47965707576622    6.43392458163065    7.78134436912776
H         9.75168420310874    6.48191381996877    8.83474754048716
H        10.04335556549851    7.19278500268046    7.24436879911478
H         9.76697730682271    5.46019288246615    7.39623714525161
C         7.67675308464374    8.13074741221836    8.03179311796116
H         6.60968643454817    8.32952477115450    8.01124991935954
H         8.14866499906426    8.81300114376229    7.33054640461127
H         8.06650214153060    8.33850048354169    9.02651398285056
C         5.04450631471176    8.27925777831532    2.45173646581524
C         6.55115888103323    8.30340774543662    2.73208726998315
H         7.17734551522122    7.73076510411217    2.04839838945963
C         4.58062410747354    7.46459173536661    1.24799220958808
H         3.51073788112563    7.62982651319951    1.08990713579343
H         5.08226002662517    7.80574047015238    0.33403690521035
C         4.85897565759741    5.95738752620671    1.33904686610272
H         4.46629887892662    5.46850329785697    0.42753983269193
H         5.94365140659178    5.78559539168541    1.35912448818177
C         4.71536365452151    3.89950341232501    2.51736680526109
H         4.40957755571346    3.40111827500104    1.58381740741630
H         4.25736848885159    3.37651798923859    3.35651169142205
H         5.80022822512713    3.82949347216285    2.61360043728524
C         2.82857814379775    5.32152866158577    2.45575933860814
H         2.45763507068569    6.34310460836301    2.49421180196884
H         2.41443733770013    4.77679092776828    3.30409615759125
H         2.47398409986591    4.84798454665474    1.52786154540366
C         2.60659955912566    6.44498501946631    6.39164419952861
H         1.60580001787139    6.12653328494635    6.06485739891140
H         2.75597971543261    7.49805672888237    6.15859824197894
C         2.83096460419750    6.09361452083405    7.85620678415952
H         3.71553857127423    6.61357809638116    8.22419406426217
H         1.97911699930465    6.33847367413240    8.48476882761418
C         3.09973947723546    4.59102260093160    7.76922271763541
H         3.79422438497491    4.25574707142861    8.53486479158576
H         2.17077119101010    4.02877262462037    7.86741358037644
C         3.68661811972679    4.42181706193630    6.35762117477302
H         4.74504374731039    4.14617024980141    6.37135974656680
H         3.12159583629085    3.67302297130185    5.78424273874817
B         4.15681442287569    8.46147824175655    3.82421168257032
H         3.03104462482806    8.03208055976174    3.82916323642861
B         5.29708811327708    8.65635239845865    5.15989210149016
H         5.07015318722171    8.45679501154651    6.33276214221496
B         6.90001970028619    8.45703266361673    4.32531358454089
H         7.94524397216247    8.01788998018139    4.71911029770917
B         7.12779087240660    9.86748867004051    3.24413767557254
H         8.22840580061989   10.18030315182495    2.95464857733307
B         5.92556666687751    9.73898075104117    1.98855467606531
H         6.13982713179295    9.89082363745685    0.83734912414295
B         4.33664342733972    9.85696888330745    2.71251426516671
H         3.42132217379147   10.17421723418096    2.03533115165970
B         4.53996418741443   10.11171807567612    4.43889731055189
H         3.76051744935841   10.73750272872364    5.07184954524866
B         6.29630914594177   10.08714286311993    4.79068658338976
H         6.78793915121402   10.71299172759996    5.66470183714462
B         5.67775255058072   10.87416850300794    3.29505479968575
H         5.71274075790188   12.03921663813409    3.11935399313764

