70
CSD_code = EPOWEM | q = 1 | S = 0 | Stoichiometry = C28H38AuN2O(1+) | MND = 2
Au        9.49489326970530   10.12362535746416    9.51599332848588
N        10.18223765095476    7.34902587151004   10.33377698147194
N         8.93529018397697    8.31601372783110   11.80921403648534
O         9.42518089917889   12.61846772899064    7.83656428220979
C         9.45092409619971   11.68839501800133    8.46042528692234
C         9.54124270946337    8.46416488356035   10.64270547420073
C        10.03166383314429    6.30737464411973   11.34828008174875
H        11.01189850414322    6.01678615724126   11.73449974473008
H         9.56179754482249    5.42366386821606   10.90905164956454
C         9.15181843226474    6.99588161659435   12.39844082599640
H         8.19380381198173    6.49263061314545   12.55116735215575
H         9.64350907596383    7.09667134988071   13.36938694367096
C        10.94451861349885    7.14170381427118    9.15031707904582
C        10.30765027063553    6.63351969811534    8.01559603159210
C        11.07413144242066    6.42563020084616    6.87655683317754
H        10.61165324598041    6.03063620533096    5.98625747390007
C        12.42515143341209    6.71554071693281    6.86992867090896
H        13.00689009771662    6.54268032318221    5.97784446368884
C        13.03426547394804    7.22845480007693    7.99918628343250
H        14.08809880368752    7.45525135040800    7.97732462822243
C        12.30653319522639    7.45171693620058    9.16052504300673
C         8.82791709146227    6.32786019592121    8.00536861578297
H         8.40817071269826    6.53869192185048    8.99442048808763
C         8.10517975355101    7.22828180210862    7.00033881537713
H         8.46074217711696    7.04674683686027    5.99031382474236
H         8.27129387991107    8.27859085384979    7.24071404385072
H         7.03616945498307    7.03245885368745    7.02633113284068
C         8.57828217390224    4.85156110325856    7.68911804182682
H         9.12100075934031    4.21205245266374    8.38206199893235
H         8.90121620439934    4.60962954476250    6.68098888589650
H         7.51758373662986    4.62681506041694    7.76896466672799
C        12.98022823718284    8.02847426837814   10.38389507205418
H        12.25049661751211    8.10426195313383   11.19662281220528
C        13.49019399366745    9.44217060981532   10.09334887210800
H        14.23721753904901    9.43113518198308    9.30503155925590
H        13.94247614456510    9.86578309887001   10.98653756918096
H        12.66886093086796   10.08741611980971    9.78101785899433
C        14.12191329283490    7.12509510228062   10.85525383355285
H        14.91832527660515    7.08759911307237   10.11806737910739
H        13.76624289813794    6.11059237944741   11.02295588520159
H        14.53821878997721    7.50423491984496   11.78534714544075
C         8.15279137976435    9.31064135833824   12.45966886276813
C         6.77980489349572    9.36226695645075   12.20756113296600
C         6.03252391270742   10.33049120526982   12.86501397811072
H         4.96987892050266   10.39288111751637   12.69359228481943
C         6.63345107153335   11.21453297360482   13.74061605247929
H         6.03684575881400   11.95659534819808   14.24809728277771
C         7.99524483554042   11.15494614456519   13.96734115981099
H         8.45101810323046   11.85502003137778   14.64899166879416
C         8.78128834437526   10.20330387670757   13.33121951722960
C         6.11443411356292    8.41216512126814   11.23920242716894
H         6.86128614152460    7.71478094348101   10.84601549860916
C         5.53758248559502    9.18327702119476   10.04933520172171
H         6.32215057547559    9.74460120977669    9.54162091208478
H         4.77100051612359    9.88099727552489   10.37347362032428
H         5.09170232655658    8.49204304027401    9.33856341075844
C         5.02481781168486    7.59542375966998   11.93738010670914
H         4.21138538592668    8.23430346629670   12.26800076849415
H         5.42710974308767    7.08020317247477   12.80708592588541
H         4.61786132400233    6.85454318383209   11.25364520153665
C        10.27185808724370   10.15858966947510   13.57489081837926
H        10.70749895130730    9.33489702476209   12.99997625050910
C        10.92965385460188   11.45319294076766   13.09090080908847
H        10.55708476896964   12.30923486475846   13.64569387792396
H        10.72481808126965   11.61299806399562   12.03222806946568
H        12.00639067375503   11.39852197919729   13.23031026022798
C        10.57557898983346    9.91619196310584   15.05488972391518
H        10.07613207830469    9.01662733097729   15.40855304927139
H        10.23962663033187   10.75105271785371   15.66248801280317
H        11.64639798817331    9.79848998535599   15.20190311957710

