103
CSD_code = EPOXEN | q = 1 | S = 0 | Stoichiometry = C38H59MoN4O(1+) | MND = 4
Mo        8.48684099226934    1.97688716944313    4.63224966550300
N         8.87574808484902    0.76329645587096    5.80055512186762
C         9.06011033987627   -0.28237348553185    6.70214309436146
H         9.96447916645034   -0.87633612671789    6.44528704002839
H         9.19659454528999    0.09803974000162    7.73805039863437
O         7.92424853173801   -1.12313011110001    6.66255757035052
C         7.99671620772250   -2.20875224614812    7.55807122181830
H         8.85487740133128   -2.85077859690984    7.33179363374142
H         7.07506706887360   -2.77045517293282    7.42771411311782
H         8.07344206564675   -1.86081211593283    8.59395375190756
N         7.02418262211900    2.99225319683814    5.29894606337959
C         7.04555600572886    4.34514514086198    4.87387631294619
C         6.34193545205396    4.74389596304148    3.74093142408704
H         5.77765256209484    4.01405017391453    3.17901054172763
C         6.31526510603360    6.07843613899136    3.34738264653684
C         5.51856755120252    6.48258866024360    2.14603307466798
H         5.66645143431597    5.77607043744209    1.33262043180005
H         5.78918209568264    7.48068308900681    1.81119782082065
H         4.45717070231851    6.48763173559066    2.39381378922126
C         7.00128359108349    7.01680944972710    4.10230610758149
H         6.98274777328506    8.05649643735215    3.80996345627950
C         7.70410331479635    6.64905687480972    5.24663124670772
C         8.43019363204902    7.68698013885741    6.04536896157696
H         8.86224400554886    7.26258895355677    6.94808360306266
H         7.75002445588046    8.48783168478573    6.32925418551083
H         9.22952561943782    8.13100461905311    5.45253590283788
C         7.71827516751056    5.31531838596985    5.62489834722437
H         8.24468923150862    5.02259758157923    6.52396210782610
C         6.05642177536141    2.68466498144629    6.37056251403737
C         6.76720046246196    2.74612040299460    7.73184007737943
H         7.65118328258556    2.10772855431925    7.71061129742657
H         6.09984092682620    2.39787989424661    8.51584807463398
H         7.06056791418065    3.76536230784976    7.97272302627104
C         4.86911398520843    3.65609411348936    6.37136748135270
H         5.18349798010563    4.67133278425600    6.60221300685543
H         4.15056269151543    3.34159326399958    7.12350899650072
H         4.37435925368463    3.65973703247509    5.40241220159834
C         5.52162454914249    1.26495902705351    6.15020566622252
H         4.88250227208131    1.23873634872950    5.27038404810171
H         4.92361820460685    0.95937602825488    7.00540394279105
H         6.34393981540116    0.55719628798223    6.03160563596560
N         8.07048446606738    1.09689891891850    2.99990670688297
C         7.10253565659948    1.77922422261500    2.21969950627963
C         5.74052774514936    1.55598134667017    2.44637566736992
H         5.44535160321125    0.88324252967019    3.24045460921485
C         4.77567724133666    2.16545563323359    1.65901088209639
C         3.31693081268659    1.93182694276933    1.90305416724733
H         2.84988866825776    1.51066904257080    1.01426018716389
H         2.81289893521485    2.87228175596685    2.12309860541422
H         3.15852340796710    1.24873445030651    2.73359164772580
C         5.18384377566399    3.00448930512331    0.62557333790926
H         4.43489666545020    3.47205714838294    0.00300900456518
C         6.52748807649917    3.23537257040641    0.37369626644206
C         6.96193729154981    4.09868166580737   -0.76981472524134
H         6.14743115823557    4.72681484086536   -1.12125404216704
H         7.28441811261689    3.47153733407088   -1.60089858495657
H         7.80161048454445    4.72561267259117   -0.48073034365892
C         7.48246732445673    2.61891476999120    1.17643608099590
H         8.53054833308522    2.76790273650312    0.96330543937532
C         8.35369781075619   -0.28501528696182    2.56311371829544
C         8.16555539308047   -0.45720778795502    1.04992735373276
H         7.12598111967606   -0.32268483234400    0.76068257707481
H         8.47280697872786   -1.45980085141637    0.76442734994293
H         8.77335541635893    0.25905175481308    0.50108840946898
C         9.81236081727694   -0.61879559554606    2.90378400795137
H        10.48497643165122   -0.12014062249257    2.20917124116037
H         9.97569067032156   -1.69023676026939    2.81716140169762
H        10.04459766529385   -0.30798056694839    3.92506821312235
C         7.42489085130516   -1.25923252029576    3.30362814513619
H         7.51214344088321   -1.11643354139500    4.38094492674342
H         7.69465346046937   -2.28421877400098    3.06184361740156
H         6.39089074308056   -1.11022953190413    3.00304766711564
N        10.00550672272261    3.09987427015952    4.42941483564542
C        10.16116551128778    3.57137949940410    3.09813751646352
C         9.66606673096186    4.81402975828357    2.71255528038912
H         9.14369813995453    5.43084650454804    3.42771820866691
C         9.87510885948742    5.29748279785626    1.42442661320289
C         9.36606846060199    6.65586478823322    1.05356730687325
H         9.96722791256748    7.42149620835891    1.54355984913612
H         8.33727326521809    6.78144733695640    1.38316448960935
H         9.42236355462028    6.81879955433188   -0.01958244350879
C        10.58244875800144    4.52166787258784    0.51901309703789
H        10.75651129735617    4.89075381092437   -0.48125090004850
C        11.08776331246965    3.27477987931172    0.87747334832925
C        11.83932012464864    2.45196862540594   -0.12267822894549
H        12.33356475403519    1.60789543834107    0.35189050746485
H        12.58900398944799    3.05785244002291   -0.62763702686598
H        11.15877034170585    2.06987033100482   -0.88431363218431
C        10.87541434760286    2.81146879190866    2.16713068094864
H        11.27890093381610    1.85479953700386    2.46948731617669
C        11.13488680292779    3.41881186555640    5.31888870947031
C        12.36566892374293    2.57368656463796    4.95233727738835
H        12.08998599834755    1.51904461912200    4.90508665231020
H        13.13482481202752    2.69793619364381    5.70995100099211
H        12.78013448083102    2.88196257258490    3.99573680721289
C        10.73679014150671    3.09161506640028    6.76226356167775
H         9.76613573885283    3.52682198844235    7.00149767387780
H        11.47731016997936    3.49681252460761    7.44802934865161
H        10.68718000256585    2.01390492882529    6.90849093165393
C        11.49713526684419    4.90888260425193    5.23150475404702
H        11.82635689432071    5.17319673345394    4.22942132407698
H        12.30600634861761    5.12750545652943    5.92339379408296
H        10.64013900559143    5.52546326878172    5.49158070040197

