79
CSD_code = EPUKUW | q = 0 | S = 0 | Stoichiometry = C28H38Br2N4O4P2Pd | MND = 4
Pd        7.75552557597989    3.28434074570590   -4.54710301230276
Br        7.33424383994380    0.90665975875019   -4.67534484070208
Br        7.55762849069671    3.48159017478379   -6.93798550344234
P         8.50712697579572    5.42515528582725   -4.61378401930742
P         8.08622511847962    2.72758354669623   -2.33355191047178
O        10.13892853523005    9.30111673058484   -5.76483094881989
O         8.62389281673291    6.16996377618441   -3.18674111522716
H         8.64910828133115    5.53738064150900   -2.45362296388759
O         8.30413952083782    4.08577606672013   -1.42344583709530
H         8.07056872424406    3.97067263802117   -0.49536122828308
O         5.52295317367296    5.02831804980727   -1.16179274609272
N         5.34408197102720    2.61983704947919   -2.24614672870895
N         7.80452773771819    8.12118701057595   -5.23429108274934
N         7.08757743445993    6.56983287018650   -6.62728964765890
N         6.26124043075720    1.19650544802245   -0.83073562520918
C         7.12387186024636    8.75078051674509   -6.23570357201450
H         7.01454162307090    9.81634016727125   -6.25028311970324
C         4.32669686479485    1.94563440344872   -1.64678946900552
H         3.30071596097501    2.14082034829470   -1.88159501895090
C         7.76300250182263    6.78531676556040   -5.52657028704374
C        11.20693005490666    6.16524089042891   -4.33356772278977
H        12.21088210698962    6.20262962536118   -4.75424465393193
H        11.26656827290759    5.70112419829322   -3.34956412107905
H        10.84655736268432    7.18288411251887   -4.20476150545557
C         8.46747029880703    8.81479962015310   -4.19982534299725
C         9.69023926475950    9.44406867097711   -4.49010432759851
C         4.91690542726721    1.06733458986663   -0.77973370916903
H         4.45940096671660    0.35103817589058   -0.12759307354799
C         6.68493850618825    7.77227306057369   -7.08209770735285
H         6.10956647872532    7.85932938739184   -7.98144760719841
C         9.31450965047698    1.55156234071042   -1.50706595194042
C         5.06438763800708    3.60116901208219   -4.47870950999276
H         4.95688839944481    2.60807354839145   -4.91228103906583
C         8.56089534275809    9.63122954466983   -1.94429954958109
H         8.12248396384489    9.71254538474821   -0.96172533259712
C         6.49913734427258    2.13872225253616   -1.71403270742524
C         5.24240538570877    3.74154539046997   -3.10205441973751
C        10.33785452050705   10.14799223822032   -3.48203331832701
H        11.28137838187536   10.63335307215869   -3.67381321698734
C        10.34948439833913    5.93965266963706   -6.68189545424650
H        11.33596923695396    5.76322405669364   -7.10911294835407
H        10.16183595929623    7.01146893692132   -6.67815970980308
H         9.60783761047967    5.46300986332829   -7.32045289802157
C         9.77433449200800   10.23330571646771   -2.21967615943156
H        10.29243557046912   10.78343025468468   -1.44900234354687
C        11.37174058213497    9.88057681404209   -6.12087150976531
H        11.51953718352679    9.62734940726498   -7.16920679830905
H        12.19354718604779    9.46713426455846   -5.52825547230043
H        11.34943307379117   10.96875024065533   -6.00987697989980
C         4.85109544627401    4.73658041538251   -5.25664233704137
H         4.69548426977680    4.63857730470938   -6.31962413347196
C         9.24032418905160    1.75472774470786    0.00873530355981
H         9.86680215688489    1.00737563050186    0.49213100388510
H         8.21999520096467    1.61158928520408    0.35928732692823
H         9.61370828273132    2.73323170754713    0.31076228368663
C         7.90650998514969    8.92876322658641   -2.94128619270541
H         6.95594197333420    8.45447415859842   -2.75548712297713
C         5.07376022672097    6.13399775980595   -3.30291838483091
H         5.05785771897742    7.12046199258361   -2.86732849142917
C        10.70534408058252    1.92173117372634   -2.02123069692012
H        11.46586581298407    1.36491939236377   -1.47633266171409
H        10.90486565637698    2.98733400859979   -1.88817058947224
H        10.79605493472207    1.66592521371439   -3.07697689511491
C         4.84300238199536    5.98513755198096   -4.66227151440515
H         4.65083027405178    6.86124630778085   -5.26224461393775
C        10.29401757720023    5.36966670375101   -5.26639932405728
C         9.01861715454831    0.09158035792202   -1.82661851018541
H         9.71485101434697   -0.54129682459339   -1.27853018296528
H         9.13411023201452   -0.11887900147400   -2.88533709363399
H         8.00608885880177   -0.16638384464192   -1.52882243712755
C         5.29005778463521    5.01644430278078   -2.50917912498364
C        10.73834756580625    3.90432502431902   -5.27637151439359
H        11.80025445531309    3.83605455424031   -5.51142962323808
H        10.19524595915838    3.32808213154914   -6.03221356813919
H        10.58121869428958    3.45364622353157   -4.28928309496287
C         5.61977082377233    6.27365760320591   -0.51414489710025
H         5.80456914421597    6.04636732804539    0.53487665696544
H         4.68934246890814    6.84338273687629   -0.59722758743756
H         6.45171357865266    6.86455049685511   -0.91128821563852

