53
CSD_code = EPULEI | q = 0 | S = 0 | Stoichiometry = C21H25Cl2N3PdS | MND = 4
Pd       -2.06066127509985    6.17479693791712    2.84781148895027
Cl       -2.51693821121368    7.51984583427536    4.55709552915989
S        -1.04742189634114    4.46575129013044    1.37122472500750
Cl       -3.94361064082291    5.06014109424253    3.19235600413882
N        -0.35190929692977    7.13531626082387    2.48585327186214
N        -0.03285536036741    8.29608410073827    2.92995069130136
N         1.27349878057651    8.42661001125148    2.84200712657348
C         0.75739437855693    6.47010247409771    2.06912490527632
C         1.82174594543178    7.31145671977264    2.30607476499362
H         2.87429932123990    7.19073102772962    2.15880190795910
C         0.68325307461288    5.11224775307472    1.46396874285516
H         1.27654951772213    4.38382647111116    2.01936190126542
H         1.03717826544265    5.13715924760273    0.43066494857699
C         1.90661456482254    9.74175817379054    4.76247003841357
C         1.94784063351364    9.55428380171941    3.37620802454014
C        -1.14248489586528    3.47202191764353    2.86473338038442
C         1.13117454654763    8.79459242535802    5.65012875531637
H         0.21128431230093    8.50323508276063    5.13198762070970
C         2.60997489397353   10.42714414371036    2.51008251836992
C         2.62228767968612   10.81376122078670    5.27812731123302
H         2.63405210215022   10.98664430219048    6.34118532387731
C         3.31536220096149   11.67201018526503    4.44513079687774
H         3.86378404209807   12.50056234507035    4.86762746684068
C        -0.62743492978111    3.91253646906909    4.08311943312057
H        -0.07914208900270    4.85182833143806    4.17362100856904
C         2.48274508949287   10.26012707406498    1.01267973119613
H         2.44837796819030    9.19235858713601    0.77109092426252
C         3.29620706106263   11.49356975709251    3.07461784112463
H         3.81743764017123   12.19387416112059    2.44344194835639
C        -1.48337378818733    1.91982005462278    5.12552440963172
H        -1.62870987761822    1.32337569605728    6.01282363952243
C        -1.99089788375446    1.49301468916957    3.91136943074401
H        -2.53133752425326    0.56151547099046    3.84430844061464
C        -1.81644870450588    2.26428273298984    2.77516153639521
H        -2.22363172905385    1.95190242681524    1.82618338158704
C        -0.79864488445086    3.12203082964098    5.20734661394457
H        -0.40997142251648    3.46155338403108    6.15534939067674
C         1.15474750552130   10.89058456004810    0.57412129076620
H         0.31393151741479   10.42450548313653    1.08296967144813
H         1.02008106715439   10.77433625914798   -0.49866764415018
H         1.14883452372145   11.95163891317082    0.81187087233075
C         0.69835682992986    9.42618002299388    6.97118331359700
H         1.54097550250980    9.57467568731036    7.64315328691872
H        -0.01339266852113    8.76690446236655    7.46041514036963
H         0.20737053063710   10.37911630560270    6.79432757184820
C         3.64482779028678   10.86625377458123    0.22804929142974
H         3.62611494946745   11.95156667682249    0.27227595538036
H         3.56781079702376   10.57581628549095   -0.81707655456524
H         4.59897416711123   10.51367485079526    0.61332302088543
C         1.96817302626623    7.53839033624144    5.92292863071934
H         2.25776122064820    7.03906595556780    4.99991542965584
H         1.39317654015061    6.83976784095906    6.52480752714985
H         2.87546909185637    7.79925010045494    6.46478822202315

