63
CSD_code = EPULUX | q = 1 | S = 0 | Stoichiometry = C28H32N2Rh(1+) | MND = 8
C         4.20848643460604    2.52268869164541    1.31866611118808
C         2.90442989571703    2.88730579434962    1.03113283882022
H         2.31399166395090    3.44456154063718    1.74551591935920
C         2.33576394966166    2.54344325045970   -0.18886505794667
H         1.31328461682829    2.82280832005850   -0.39481449876768
C         3.06401772012578    1.84826521445450   -1.14356303355229
H         2.60559251626292    1.58522604079156   -2.08406642860135
C         4.37839452711454    1.50889080459724   -0.89549615585136
H         4.96343540861937    0.98883571907718   -1.63899416277345
C         4.95291926244866    1.85042912420331    0.32940947839502
C         6.32712173825289    1.63065923329670    0.69349871994961
C         7.44642620348607    1.07312575384898   -0.12166670155712
H         7.58103259395764    1.65383365558988   -1.03556634599433
H         7.23140460916744    0.04525377506988   -0.41650813013671
C         8.64971415610394    1.17337218915393    0.83113250964463
H         9.01894765275863    0.18507970795790    1.09817209241251
H         9.47256730085867    1.73114942926116    0.38864815367402
C         8.10911553346896    1.90164184776306    2.08720267104435
H         8.29703800239310    1.32216105206435    2.99676459055841
C         8.66546914165073    3.29630453142151    2.27400573959355
C         8.56757193298537    4.22495074830476    1.24375592773167
H         8.09844355096368    3.94713638328903    0.31102210638598
C         9.07209954002956    5.50241676863580    1.40455295486941
H         9.01137883922695    6.20891894874075    0.58974982905945
C         9.66692914842590    5.87082396546452    2.60022595708812
H        10.06666455652003    6.86611231977797    2.72344855820464
C         9.76047619228514    4.95362530824176    3.63229666547841
H        10.23053021678685    5.23336792531616    4.56290775328337
C         9.26390224296397    3.67181646117722    3.46829737323815
H         9.36332821732254    2.95228519496677    4.26755194841015
C         5.80084317172181    1.95592832755977    5.10356517620551
C         5.32156580763375    3.25293789589945    5.31179931042153
C         3.96536772470383    3.32735430265533    4.76982362076668
C         3.59332892334311    2.02074085377380    4.33504688670908
C         4.77420009608909    1.21038146304780    4.38049344956891
C         7.03658281244928    1.35481172164913    5.68780238643496
H         7.81058111695423    2.10213792770659    5.84320344743863
H         7.42972497078523    0.55393230823239    5.06592352594904
H         6.78741550876424    0.92435890020459    6.65959147016014
C         5.98570804041347    4.33227544252568    6.10500375046944
H         5.69188135399717    4.24225328260604    7.15202629754618
H         5.69067972878277    5.31973984983651    5.75724468240443
H         7.06921197094626    4.25651933675458    6.04788241942050
C         3.02599092290900    4.46610375161783    5.02278435598231
H         2.20595594270793    4.47239082366408    4.30892543156824
H         3.53878676682174    5.42378037365251    4.96607596794875
H         2.60462332938580    4.36764890251716    6.02440460634954
C         2.21961524073106    1.53014275827552    4.01313329461772
H         1.86009141656234    0.93733081678284    4.85561836910490
H         2.21154666137666    0.89650896767024    3.12897588298280
H         1.52697988315854    2.35241406183082    3.86050492850007
C         4.79940883252894   -0.27163378947467    4.16169589875785
H         4.50676966086336   -0.77757721037148    5.08310792307557
H         5.79320093852975   -0.61829933227704    3.88727928801260
H         4.10358870136550   -0.56200822254745    3.37801744249659
C         5.77519981985440    5.73756930584020    2.11011295330040
C         5.99425264969652    7.09718489970108    1.74585137494643
H         6.92302577158323    7.45203348837128    2.19255471812697
H         5.16530518687456    7.71247524249168    2.09628918431137
H         6.06277980691020    7.17785547916052    0.66119234661908
N         6.67699245893223    2.01263056212778    1.87251181696025
N         5.59602104660476    4.63766840374322    2.39636874195937
Rh        5.21489637107643    2.84291940515140    3.05527166767685

