65
CSD_code = EPUMAE | q = 1 | S = 0 | Stoichiometry = C28H34IrN2(1+) | MND = 8
C         1.53228089356789    6.46461916543128   16.48152548560259
C         0.42357299772392    6.61203639442517   17.29641384706218
H        -0.29829314909961    7.38976869435867   17.10087573818907
C         0.22175538968833    5.76979047969789   18.38031167300430
H        -0.65433649209004    5.89333711838458   18.99870203020917
C         1.13984968808360    4.77267377784710   18.66995429340515
H         0.97532362151036    4.11387570009627   19.50824086112121
C         2.27443205434641    4.63417086965207   17.89752832677937
H         2.99201064109217    3.87075397124707   18.15377209622496
C         2.48982566806569    5.48155419986234   16.80696222565539
C         3.69069882397779    5.50166608091584   15.99215352160519
C         4.84340392222641    4.59693204707547   16.27212845648877
H         5.27615837578885    4.22109005882441   15.34743030994002
H         4.54159150643906    3.75256916532995   16.88112827082687
H         5.61758392192882    5.14441012907694   16.81187143036403
C         4.92383653599631    6.59553129945969   14.27630262439768
H         5.78680181993876    6.52577165472588   14.95468101872103
C         4.94034401973311    8.00046655325163   13.67053281645386
H         4.10082701546846    8.13738745802108   12.99922939333766
H         5.85529390295332    8.14783936276832   13.10438050413015
H         4.89856317613718    8.74888028657911   14.45858895710157
C         5.10005661527589    5.54371020523098   13.19114098975421
C         4.11741240334108    4.60500330506012   12.90853776155563
H         3.20635364154514    4.59140395045043   13.48774748486694
C         4.30315422008220    3.67369562110639   11.89966308412105
H         3.52965114823363    2.94919052102305   11.69258931814660
C         5.47511811418290    3.66796316864382   11.16490613505058
H         5.61890463613822    2.94436124199904   10.37794374331424
C         6.46821499569527    4.58922717100992   11.45435537112491
H         7.39167752160611    4.58246984077846   10.89630459121248
C         6.28419616119771    5.51730321229419   12.46296420518310
H         7.07243187270038    6.21972904821717   12.69055298940862
C        -0.16042229660817    7.30696428836247   13.96790068940869
C         0.23343933409310    8.67872233056767   13.94204352738019
C         1.25000805898110    8.83289511430312   12.90736669489617
C         1.54911294418426    7.56867556930173   12.40341212352533
C         0.76038991864651    6.59008305622317   13.14227210619134
C        -1.39634846401366    6.72834135154900   14.57209942004695
H        -2.11219674804008    6.53194469863925   13.77223373317758
H        -1.85947481564933    7.41511689132833   15.27404221883729
H        -1.19559005636695    5.78721353129406   15.07881995864829
C        -0.53554994223403    9.81680856339182   14.53432351854410
H        -1.32805540630521   10.11589921778126   13.84673698862350
H         0.10270626696768   10.68071625228711   14.70549422727814
H        -0.99537573791451    9.53626418619719   15.47887104753524
C         1.73807783002272   10.15070647000462   12.40063377077518
H         2.69044930665015   10.05439087389847   11.88434548676561
H         1.85941043173296   10.86623277224030   13.21180800031580
H         1.01315858967069   10.56394256356499   11.69776496220718
C         2.38180589024293    7.23769634287974   11.21029307397309
H         1.72329901195430    6.93984593841452   10.39283665856484
H         3.06106176634814    6.40902117017253   11.40523112052224
H         2.96165871561149    8.09415763327443   10.87495913908108
C         0.54503572754317    5.17298550721951   12.70637052740398
H         0.40746771207013    4.51211996104061   13.56037586460658
H         1.37504119404039    4.81076493525285   12.10722458639793
H        -0.35920863256998    5.12010529417940   12.09740783118554
C         2.94499095229895    9.80365226268681   16.60640515924799
C         3.32203448116530   10.89497284955459   17.44148273985070
H         4.38325266739905   10.83021154159813   17.68258186223241
H         2.74427660889883   10.86580915206207   18.36563193932840
H         3.13051962485598   11.83871021477027   16.93047167277421
N         3.71237386316721    6.39938077839094   15.05648272932732
N         2.65362653338506    8.90990126339948   15.93767543260742
Ir        1.91622900629713    7.53516567132204   14.78648163438563

