109
CSD_code = EPUNUZ | q = 0 | S = 0 | Stoichiometry = C43H59N5STi | MND = 9
Ti        9.80735825319470    8.16068389045670   11.28441426611698
S         7.99060729893700    9.38783896432920   10.21899237142816
N         9.82411372493875    7.83816338707275    9.40665790300964
N        10.65833706574427    7.18875791595182    8.47575013997278
N        11.94474082692567    8.16681293585426   11.38851561915995
N        10.64871073884540    9.91066443762801   11.73078413824835
N         8.67825072557332    8.79626435689568    7.62616835440807
C        10.30000995036760    5.88523113252377    8.10684491742387
C        11.27776002395438    4.96032469147384    7.72671693557633
C        10.92730519285478    3.66001020067061    7.42216342810851
C         9.60647148015465    3.24700352545191    7.49883451088870
C         8.63484510388696    4.15276431197965    7.88864617696278
C         8.97546924969660    5.45680410044213    8.19558743098388
C        11.49718510120922    7.97950111293238    7.69296429908579
C        11.91781196564458    7.59265335152734    6.41850949673781
C        12.80191633267540    8.37786677289460    5.70614778530522
C        13.27893237186668    9.56800319721497    6.23055408229967
C        12.82332178747629    9.98678823796756    7.46858343268159
C        11.93612196954456    9.21057569037066    8.18837930866661
C         8.85875219146719    8.64037751359668    8.86939637075244
C         7.70246481705762    9.55884832337218    7.00703427085222
C         6.34966679050550    9.18397020389713    7.01682672302037
C         5.44704089378511    9.91820518514396    6.26218151094560
C         5.84907793294310   11.01030728440144    5.51947396428559
C         7.18139028704805   11.37804150875159    5.51883484097038
C         8.11695863560695   10.66576901607807    6.24854834954726
C         5.86057762596418    7.98510065927825    7.79534627864756
C         5.39392470132787    6.88033193031336    6.84494049190257
C         4.75436049940528    8.37559012565494    8.77676658056069
C         9.57202858598450   11.06913237298804    6.22540296496221
C         9.76142823747094   12.52001772951797    6.67012378172758
C        10.16369567811240   10.84731830465826    4.83243773182126
C        11.88541427351069    9.47795666094969   11.51164681468295
C        13.07793484919493   10.40622301903253   11.41310566129070
C        13.16854671405676    7.49351418537212   10.98405215725850
C        12.86683041075499    6.03772876076618   10.62138944946756
C        14.26711604585769    7.50417493014167   12.05940690391426
C        10.35583499803556   11.33037641067419   11.86427463464410
C         9.09788448970344   11.53446655158979   12.70788715924587
C        10.16058649889468   11.99342480037416   10.49147023593061
C         8.14518150660985    7.83043687150496   12.92351545896775
C         8.18007805626053    6.73123556549520   12.00552006358079
C         9.41453798813879    6.04518513019569   12.17667280601484
C        10.14552586416796    6.73523716789550   13.18404516195274
C         9.36766011538027    7.83790652412113   13.63104646971209
C         6.90294521756099    8.61089176131071   13.23300396171836
C         6.98201200322655    6.23173743220716   11.25245489327676
C         9.70953372815745    4.67722650369376   11.62538285207670
C        11.35167418106814    6.25475767292274   13.93128314561415
C         9.73544721310755    8.66600509156610   14.82889508985870
H        12.31172608843632    5.26548197078303    7.67713017028100
H        11.69497842255119    2.95903169302503    7.12838157530753
H         9.33890910411659    2.22957308075065    7.25789738739615
H         7.60062395671579    3.84596359996379    7.94839905723734
H         8.20997357755407    6.16083628881082    8.48340764576237
H        11.53233409838250    6.68897434655477    5.97355680841277
H        13.11353134698565    8.06075765357845    4.72156670239519
H        13.97786625951987   10.17155826390949    5.67148904900710
H        13.15557864130063   10.93163840218532    7.87603520768518
H        11.55463786061450    9.56000673577793    9.13974474736353
H         4.40568515671326    9.63069220955507    6.25426724313929
H         5.12829334699473   11.57109381824199    4.94186012615343
H         7.49655063578220   12.23162196445253    4.93659731552302
H         6.69526354768190    7.59246139460654    8.38209846105141
H         5.07638755192910    6.00457004739338    7.40895294960355
H         4.55775819469481    7.22118928819946    6.23912817282249
H         6.20479137855570    6.59054422313566    6.17954728373786
H         4.44081003820073    7.50851362042104    9.35654030700162
H         3.88532039922187    8.76591275704321    8.25393511562936
H         5.12216085834739    9.14072546811275    9.45741296489687
H        10.10885224905036   10.42319673829787    6.92540892379332
H         9.29005924633069   12.68463926585488    7.63637724265444
H        10.82259083874427   12.74726009862640    6.75639826245629
H         9.32325020515578   13.20945053488878    5.95243690084762
H         9.65667986329478   11.46477189838078    4.09420773156597
H        11.22264482010746   11.09759525177113    4.82920479559492
H        10.05618972490153    9.80417440901399    4.54499769579674
H        12.79713334860259   11.36297641755345   10.98289560753418
H        13.48435241692213   10.58688884437641   12.40854358798019
H        13.85308537141525    9.96985744024565   10.78910795349853
H        13.56272779091813    7.98848289768076   10.07720773262277
H        13.62029638310456    5.66195681310499    9.93341570690011
H        11.88932939284493    5.96182959889889   10.15430151209569
H        12.88192363639351    5.41188052341426   11.50945215166996
H        15.13905524950578    6.97867939252788   11.67578690604483
H        13.92399738633596    6.99138676257644   12.95365657294625
H        14.57010335738623    8.50823523600441   12.33700354092737
H        11.19345046892157   11.82046834719067   12.38838676004261
H         9.24829357314371   11.15357377190690   13.71415263103659
H         8.86846354472609   12.59572530178434   12.76916534255927
H         8.25823300510282   11.02014545427443   12.24441364226324
H         9.98941286277842   13.06011861543221   10.61682689130405
H         9.29415445568091   11.55447758754296    9.99849394310037
H        11.02653474958336   11.85627405230965    9.84607937183969
H         7.10692982718469    9.44077880375281   13.90505898790108
H         6.44762758454217    9.00564497466922   12.32433976540197
H         6.17442477006028    7.95202754470484   13.71219525180804
H         7.25621859571988    5.44682920650392   10.54992430002988
H         6.49423676003560    7.04470524413210   10.71341633350633
H         6.25472138044439    5.81883006631947   11.95715228715522
H        10.72439417632736    4.36524417945326   11.85756073974729
H         9.57667477407377    4.63254406202343   10.54402345265467
H         9.02614474281212    3.95203440571515   12.07545066674929
H        11.03687301366082    5.86060203015172   14.90224251756621
H        12.04800977811646    7.07173470726424   14.11693913237022
H        11.86824407114267    5.45794230860561   13.40380920818080
H        10.65029726074313    9.23715165428783   14.65702815132813
H         9.90774106191752    8.01233599034815   15.68734198965351
H         8.93598760412453    9.35499533079268   15.09116614219007

