76
CSD_code = EPUNIN | q = 0 | S = 0 | Stoichiometry = C27H40N4O4Ti | MND = 9
Ti        2.78059564483588    6.43730473767376   -0.06587394731901
N         2.15363496202845    8.66671972419885    1.89725736815952
N         1.48303179602203    9.56971605012398    2.71882598388517
N         1.14291791280632    6.65663763254266   -1.22763977311978
N         1.17051027909823    5.32283912945884    0.47803233484272
C         2.29230430189070   10.27110586204914    3.68675503571366
C         0.13085257495795    9.36433235867223    2.89195374222348
C        -0.57713376848585    9.96506200332450    3.93628430349023
C        -1.94448025333269    9.80106270869296    4.04021287437008
C        -2.64220010398089    9.03923478633437    3.11891341064889
C        -1.94667112135175    8.43278680242384    2.08665661129241
C        -0.58003341430917    8.58617476205515    1.97097574924241
C         2.54352983820008    9.15084839615141    0.61444157962130
C         2.54257628257974    7.43388759604904    2.47310183867140
C         0.41032856121431    5.86921018479899   -0.45949086951390
C        -1.05446828027976    5.56716447793262   -0.66814851463167
C         0.68572764555265    7.54969775653097   -2.28012852956512
C        -0.19121926684231    6.88584822844596   -3.35598138022427
C        -0.01894051934886    8.79968446263922   -1.73259173762685
C         0.65478380523712    4.44621083893621    1.51911779323629
C        -0.16567938659215    5.20515728485347    2.57368580013780
C         1.82134966028544    3.75429380928241    2.22179906658712
C         4.37049650954420    6.49256421811890   -1.78513164570292
C         5.00183161455555    6.27495472848250   -0.52903616309996
C         4.60567383149786    4.99517632239316   -0.04054519963492
C         3.68439021025340    4.44772778299984   -0.97037644551541
C         3.54175159727810    5.37507947482642   -2.04733703447681
C         4.64743734862102    7.65803852677280   -2.68899182128187
C         6.01822302970538    7.17569118346748    0.10882253056482
C         5.21579329324986    4.33745640732655    1.16271731135325
C         3.16713198487551    3.03745952107976   -1.04010201399105
C         2.87600142001623    5.03075790868092   -3.34768819070056
O         2.96445133190725    8.25925585062940   -0.20496488610139
O         2.44619171316729   10.33329077491108    0.38062323508014
O         3.17476002268483    6.62991208292696    1.69478608600013
O         2.28616852690409    7.22360143921040    3.63918761580179
H         1.87168444249683   11.26097218193279    3.85737671216663
H         3.28690931629122   10.39436038736310    3.26115595384182
H         2.36966996113614    9.72479908208197    4.63266408885151
H        -0.06185280218822   10.55608164623154    4.67481383546907
H        -2.47160148507147   10.27259951674385    4.85703726828206
H        -3.71097996631250    8.91583471591556    3.20537172562671
H        -2.48102266979216    7.83331705041640    1.36150124711745
H        -0.04712264999870    8.09888669741738    1.16185511174592
H        -1.46354110205057    4.99358141983319    0.15658951023995
H        -1.62262037671030    6.48819765102759   -0.76731860740120
H        -1.17308771569889    4.98869997532576   -1.58297856787405
H         1.61297562093861    7.88880370675944   -2.76367312465031
H        -0.12132288484314    7.46193860007661   -4.27564122283806
H         0.14310963603286    5.87273767757916   -3.56174190613986
H        -1.23594750822505    6.86122831462510   -3.05994203456516
H        -0.30609924013841    9.44177502868549   -2.56222746505800
H         0.64617096850009    9.36391914472656   -1.08332053102920
H        -0.91614009600817    8.54244212792002   -1.17358413570911
H         0.01831039854057    3.67246264418602    1.05254475788214
H        -0.61307273696161    4.49498007731225    3.26570610591485
H         0.48149683616672    5.87133517431642    3.13952661103935
H        -0.95897372828427    5.80027272407256    2.13027883731449
H         1.44499777362194    3.13179979526655    3.03033496648340
H         2.48443131279565    4.50887273213638    2.64090439902662
H         2.37655458552596    3.13095188753570    1.52839074516238
H         4.15272829014015    7.53363018153199   -3.64975097645689
H         5.72079000038504    7.74307278286855   -2.86609632092455
H         4.30329094545550    8.58987875298466   -2.23618891739844
H         5.98369694290769    7.08372045798014    1.19469261530233
H         7.02546434043367    6.91089516010756   -0.22473021224078
H         5.83097866858545    8.21491158540116   -0.16147843708405
H         4.86050538133289    3.31680173723728    1.28180469111760
H         6.30179963602063    4.31159524200738    1.05448270578481
H         4.97978424338105    4.89212902950974    2.07191547812478
H         2.07776790002610    3.00265112595078   -0.98018698364816
H         3.46517081693250    2.58807868860453   -1.98985972155750
H         3.58034789864331    2.42591701259077   -0.24119929915318
H         1.96192018501098    4.46381465126878   -3.17668938358909
H         3.54786397032075    4.40947311505269   -3.94701418548706
H         2.63654530618619    5.91983470243466   -3.92504745210216

