70
CSD_code = EPUNAF | q = 0 | S = 0 | Stoichiometry = C25H40N4Ti | MND = 8
Ti       16.99759440492087    6.28588663968516   10.61054468588651
N        17.85091106587243    5.39600955704610   11.77648037159880
N        18.55455921880287    4.39406552303631   12.29438201373313
N        18.22460567050409    7.87091549703772   10.12971552861449
N        16.61851740765721    7.96079476969137   11.65512287470966
C        19.54626607572622    3.76772217031610   11.58217194704088
C        20.37904627771411    2.78233775751082   12.13626037329315
C        21.35128217723718    2.18369841422778   11.36106123123538
C        21.53174232886505    2.53910346062305   10.03337612424927
C        20.71542905210688    3.51701057578077    9.47948869704386
C        19.73651995518446    4.12165453358194   10.23396960046733
C        18.24811405632410    3.97113839076580   13.65100962574400
C        16.52144418887032    5.42504087697812    8.52275293031750
C        15.67005587260753    6.55022334759057    8.69308126745023
C        14.80557998261481    6.29403117998877    9.78396204985080
C        15.12494728887585    5.01235887679825   10.30862630099244
C        16.17708441411016    4.46477703479288    9.51662536005024
C        17.42292020217221    5.17568451628132    7.34329411811904
C        15.53293066193751    7.73185427885833    7.77543548177055
C        13.61024084326932    7.13745551339884   10.12132238946163
C        14.37027983266048    4.23146523820694   11.35046123781150
C        16.62946593110025    3.03318515660862    9.59864968924733
C        17.63113207964877    8.58179244007369   11.07277813316908
C        18.08631666788774    9.97447856910228   11.46901481849291
C        19.36849606737569    8.39710861851098    9.41052223744975
C        20.34569228765536    7.26793742626342    9.08324382516578
C        18.93578581935375    9.10538843937943    8.11790103070816
C        16.05722067544247    8.39635166678878   12.91465806233752
C        15.63735612736905    7.14553971856470   13.68868657022918
C        14.85424056731052    9.33790991692105   12.73792825196348
H        20.27653763773243    2.48661158293121   13.16832253781119
H        21.98390677683366    1.42617723497323   11.80262980058804
H        22.29684952473891    2.06310001511848    9.43927763831501
H        20.84981029141794    3.80305853218411    8.44469573216987
H        19.07357772887771    4.88627239026329    9.83006193459667
H        18.08425086016295    2.89139057430885   13.68977031077588
H        19.05303072736012    4.23506889893229   14.34446186891300
H        17.33300846597691    4.47797215634071   13.95832655548804
H        18.18210374243560    4.42886686170969    7.57461670922243
H        17.92569821356069    6.08728571805607    7.01802994627389
H        16.83567954753976    4.80132263665651    6.49870106046959
H        15.74505340968410    8.67238266850503    8.28984079534203
H        16.20389726644587    7.64828442497659    6.92264286856977
H        14.51115256316867    7.78840582970667    7.39122110363999
H        13.22520235244044    6.91345645084120   11.11561438605654
H        13.84930437874288    8.19923076270185   10.06692351866374
H        12.80629548531812    6.94160179582931    9.40398771218279
H        15.04824469837011    3.83036258532971   12.10682067848561
H        13.62171437218901    4.84773629758076   11.84676739562022
H        13.85240439059712    3.38935924474223   10.88281222773229
H        16.77764923380721    2.72921144765254   10.63498982574716
H        17.56228800149523    2.87228194638299    9.06208025873437
H        15.86864075322566    2.37959685990883    9.16111329034349
H        17.33761804823025   10.47462596288652   12.07480093099409
H        19.01066270548248    9.90857647548485   12.04430489023251
H        18.27171635754553   10.58307295745334   10.58682367517721
H        19.91082887122475    9.12190682439058   10.03975726783757
H        21.24003851790254    7.67431083492448    8.61492267259655
H        20.62996268654992    6.74729193459243    9.99668300931581
H        19.88621432751086    6.55691676632809    8.39956445547514
H        19.80006231717404    9.53722080096162    7.61786260824401
H        18.22324811413176    9.90090224595889    8.32817530249341
H        18.46353675732269    8.39294026338489    7.44584793768174
H        16.82440935841372    8.91930632143599   13.51322614751462
H        15.16270435497038    7.41424312403162   14.63059585837715
H        16.52286651022778    6.54237494543070   13.88536665049131
H        14.94496701915661    6.55983881596781   13.08300054165029
H        14.57163722826825    9.76419593068604   13.69833726592195
H        15.09035701973109   10.15120288230555   12.05450753027117
H        14.00499218286299    8.79151589373106   12.33878827178220

