87
CSD_code = EPUSOY | q = 0 | S = 0 | Stoichiometry = C35H40CoIN4O6 | MND = 6
C        14.47392923163144   -1.17345521003986    0.39639304450625
H        14.66440185989590   -2.07155091174529   -0.18546299764667
C        13.24930276929667   -0.49355221339641    0.33181536808734
C        11.99764334615680   -0.65733749511306   -0.28097318913934
H        11.71346077190868   -1.44980686941793   -0.94623311384724
C        11.21250833252956    0.39669651730706    0.15497249794718
H        10.19291644790561    0.58163953750836   -0.12302164106037
C        11.99422275744830    1.18696880738118    1.02006485666246
C        11.63987397294236    2.47893359445790    1.71211537837517
C        10.15012612873496    2.50933679033847    2.09826183620428
H         9.91919595536029    3.49250390382043    2.51141329861393
H         9.54920746875294    2.38184811949571    1.19863299466010
C         9.76109492787292    1.43443408452943    3.10638950199087
H         9.93237913242260    0.44219248747019    2.69280807534014
H         8.70550948888211    1.51944721550869    3.35605910750270
H        10.33911418238715    1.53637639097429    4.02339783194937
C        11.96134353376711    3.66783566547806    0.75820345996766
H        11.70377751348494    4.59318541260883    1.27836093043316
H        13.03715987146867    3.67652296930423    0.58155904926990
C        11.25317456875637    3.62682363209393   -0.58890537208261
H        11.47956585958336    2.70317463795204   -1.11509451663063
H        11.60095071503049    4.45776561678584   -1.19797781409842
H        10.17478592777048    3.71523890745216   -0.48081003067950
C        12.50793722889850    2.69668767753287    2.92820377657981
C        12.27990134501540    3.53169895689357    4.04095607907243
H        11.40153696770655    4.12107313016379    4.21936225428475
C        13.39530414313082    3.46264856534221    4.85594938324710
H        13.55383927677951    3.97093894115782    5.78782280157245
C        14.28979794149693    2.58251784557225    4.22356109446912
C        15.53634746288444    2.00464168217598    4.48119950783233
H        16.09752622669361    2.22770143833713    5.38503881362767
C        17.17718159011165    0.45933771598184    3.87519931996933
C        18.36408141729660    0.64713394543943    3.18555109024937
H        18.40250050721355    1.38264538341078    2.39752690791170
C        19.48397773042198   -0.09507715050110    3.52106614081030
H        20.40741290312082    0.06346333859954    2.98728424593570
C        19.42017357640006   -1.03157511490965    4.53464490879857
H        20.29232547409182   -1.61104582535689    4.79641124332487
C        18.23537903887832   -1.24459449032806    5.22550909473288
H        18.19426506040748   -1.98782070805555    6.00789077009635
C        17.11678715665215   -0.50144911717022    4.90186307118231
C        15.71136006185406   -1.38800924201344    6.65725621175122
H        16.48910350891574   -1.15207847541419    7.39427402035089
H        15.74008928358932   -2.46140434818110    6.42764656209067
C        14.33680110127843   -1.02027087943940    7.23362741991024
H        14.21486946918152   -1.53622181603133    8.19199190143759
H        14.29881098605432    0.06205366519816    7.40332646746380
C        12.62457661273931   -0.47568874368292    5.61020203254113
H        13.07681749329600    0.51732179761693    5.70791353714418
H        11.57639853903087   -0.42689171347721    5.92973991909644
C        12.64862762695970   -0.88047935280555    4.12228646999510
H        11.92843395720652   -0.26901780912045    3.55726956026129
H        14.59285666668170   -1.06221218402252    4.06894614248382
C        12.19892065904273   -2.79023659269357    2.77472489557751
H        12.98108955796471   -2.39448909290452    2.11873663518651
H        11.21734038771508   -2.53750376446661    2.35129803593148
C        12.36671886334341   -4.30855440433310    2.88259691470377
H        11.86956425401647   -4.65516909082619    3.79783544860430
H        11.90803856408021   -4.78701090642327    2.01503451296722
C        14.47978600610007   -4.38018181412191    3.99360901205101
H        14.55604261812907   -5.25743567606733    4.65366202027456
H        14.01401955315542   -3.56319508086585    4.54953311454763
C        15.88529508987092   -3.98318537126837    3.54657821694914
H        16.55604043624465   -3.95502763211741    4.41811736531830
H        16.24988048945281   -4.73479839130412    2.83675245522378
C        16.88278554020433   -2.34997633316338    2.12832185979931
C        18.13308640147728   -2.94915866937727    2.16174604254471
H        18.33197464100841   -3.75828727078377    2.84667441031633
C        19.14306756320906   -2.51182821493846    1.32026793264085
H        20.10777791722958   -2.99419907524515    1.36154923029690
C        18.91884098104182   -1.47188079654354    0.43980572708148
H        19.70264289271367   -1.13234760164487   -0.21874864936513
C        17.67718755607739   -0.86372137425758    0.39920611134544
H        17.48634798420670   -0.05097584209236   -0.28427988207103
C        16.65432397760960   -1.29057553473792    1.23419582441027
Co       14.67502920624635    0.87402239417143    2.16456299927652
I        15.82352772288401    2.50798296844114    0.61540057085817
N        15.39153758761381   -0.67385921430143    1.17609496831011
N        13.20424544998068    0.63688441084556    1.10611003404902
N        13.71355266437579    2.15132778761019    3.05497084946480
N        16.01274980490374    1.18207487863518    3.58331347617918
O        15.87812864834228   -0.62350095298864    5.48797322979466
O        13.28023047025163   -1.44055853935893    6.40474142200614
O        12.31177080676216   -2.23039584196630    4.07586641248109
O        13.71216266268600   -4.71860465961008    2.85143313417756
O        15.82984458891614   -2.71612945930445    2.92708091579708
O        13.89548333516306   -0.64285394566574    3.52844544872106

