50
CSD_code = EPUYEV | q = 0 | S = 0 | Stoichiometry = C23H23ClN2Ru | MND = 9
Ru        2.10991258464822    2.50442118954575    2.03972771092687
Cl        1.78578211490894    0.24895050000924    2.61637260892173
N         1.95820822606259    1.81863298283492    0.10566327707212
N         0.72965888558644    1.11958229585522   -1.60832988921711
H        -0.08308843152224    0.87623535905053   -2.14785149640303
C         2.80972831526356    1.30416940282157   -0.83845382388569
C         4.19149599509071    1.15173793255518   -0.85616168607416
H         4.78768004155241    1.44109427989148   -0.00629140655572
C         4.76447022183849    0.59016044792229   -1.97863624661907
H         5.83524343140607    0.45699992568177   -2.01669639802895
C         3.99498260678380    0.18014178630650   -3.06765623516781
H         4.48591952787468   -0.25326464310655   -3.92566089884137
C         2.61912147481677    0.30400643581862   -3.06421864826244
H         2.02028352402009   -0.02832870075382   -3.89825610658791
C         2.03728872661786    0.86327190050500   -1.93898969421264
C         0.72253656324062    1.67333618473505   -0.36677885734130
C        -0.35841349863027    2.08734444522944    0.47582631848390
C        -1.71453003285664    2.05281879697284    0.14855972402375
H        -2.03474820873363    1.70935562903430   -0.82585842560277
C        -2.63976099414339    2.45413968236644    1.08739635396868
H        -3.69418940258623    2.43557263284495    0.85451162947829
C        -2.21199988487681    2.86539010600382    2.34430100038971
H        -2.94371263685733    3.16257146508236    3.08263433579947
C        -0.86558966143721    2.88847111147296    2.66639950797382
H        -0.57560879030704    3.18582481403508    3.66531292200962
C         0.10309541474725    2.52150276899760    1.73967361321386
C         3.25061021661930    4.37765005901899    1.63623153418632
C         2.25275824321342    4.62866167002281    2.60791245010189
H         1.55828877407979    5.45046818132172    2.47649838709952
C         2.22537428089121    3.88528287594837    3.81837565697166
H         1.51352797093279    4.14703271284593    4.59406594905893
C         3.14718844842961    2.84810167491958    4.03752391067910
C         4.21278518579421    2.66623320027347    3.10265656691827
H         4.99387101104733    1.94983630917081    3.32877270001669
C         4.26954391581684    3.42845979469780    1.94554079750348
H         5.11761034426384    3.33809855418296    1.27538172524063
C         3.10279168432303    2.00992856225078    5.27968414220654
H         4.09214290607126    1.93139437615802    5.72923890406445
H         2.76726215101826    1.00314515436226    5.01733460530820
H         2.40891389680442    2.42316290062359    6.00875602524441
C         3.37272238549994    5.22252515475723    0.38817277997741
H         4.03130055941303    4.69534220541209   -0.31341610635261
C         2.02213644664230    5.42942282797697   -0.29939587253225
H         1.50661140698468    4.47530877061302   -0.40825713837617
H         2.16817433938965    5.86485963893162   -1.28528160705662
H         1.38635239701900    6.09838381433221    0.27513191221872
C         4.01934013439259    6.56710518394608    0.73871970025067
H         4.14738766323176    7.16787474701326   -0.15864592297264
H         4.99531711816019    6.41615231815836    1.19597429291771
H         3.39432240743851    7.11893058133830    1.43778541785624

