63
CSD_code = EPZBNI | q = 0 | S = 0 | Stoichiometry = C20H32B2N8Ni | MND = 4
B        -1.47522636295410   -0.58377328544975    2.65322315641417
C        -3.34172091461103    1.08233142653594    1.83891284885609
C        -2.45442637839239    0.11786536705688    5.02280314021234
C        -3.55001445849037    1.85170793099083    0.70809550778103
C        -2.43680277413396    1.61282489489486   -0.08607556371647
C        -0.66689539999884   -2.85410453001416   -0.07579084251619
C        -1.28986266067661   -3.79393359237206    0.73417811143655
C        -1.67290309579424   -3.08429273014543    1.85880789751688
C         0.02108555126320   -0.01434849767142    3.00593668380530
C        -2.39897915565702   -0.96004879068556    3.93647593689812
C         0.87634665048232   -0.98903802331627    3.81425312851717
H        -3.96150684062221    0.96530280918720    2.70271054662067
H        -2.01692868387399   -1.86708605169994    4.40938667155475
H         1.88456745792676   -0.60337095456936    3.96190800531972
H         0.94960466160187   -1.94974073433214    3.30711929681223
H         0.43441952659703   -1.16311226268077    4.79218697371133
H        -3.14855123966303   -0.16337269659712    5.81404077346132
H        -2.77069910122820    1.07647928336798    4.61871206329816
H        -1.47389593331362    0.25536495807500    5.47037341919335
H        -4.38422160426442    2.48638229759570    0.49126546704749
H        -2.20293100074312    2.00785855129791   -1.05651313513355
H        -0.22570528404555   -2.98457067489568   -1.04612108195619
H        -1.44140233402585   -4.83403140304159    0.53183394656028
H        -2.18539044789311   -3.42105829989795    2.73554224527358
H         0.56995850184372    0.21339025962222    2.06180796034927
H        -0.04290684631638    0.92830861397632    3.55328199410872
H        -3.42100213502798   -1.19042609595797    3.62204169236734
Ni        0.00000383615540    0.00000374644576    0.00000246191743
N        -1.62676897761003    0.76147932530622    0.54112190554502
N        -2.17927213367802    0.44227007560336    1.71226493199599
N        -0.68115949054190   -1.67084685200163    0.53638754934836
N        -1.29487606291985   -1.81516717417440    1.71120408039957
N         1.62677673959304   -0.76147022434727   -0.54111627914303
N         0.68116675199897    1.67085316364163   -0.53638751720097
C         2.43681587961982   -1.61280842070237    0.08608413963040
N         2.17927499808002   -0.44226575104151   -1.71226282947830
C         0.66690479106224    2.85411332686172    0.07578611538048
N         1.29487561645772    1.81516967147330   -1.71120864788174
C         3.55002631475962   -1.85169153774204   -0.70808877709877
H         2.20294840069589   -2.00783712169664    1.05652477241092
B         1.47522396116983    0.58377214623026   -2.65322331994033
C         3.34172615990074   -1.08232287538724   -1.83891021900904
C         1.28986479784600    3.79394021942069   -0.73419092563257
H         0.22572100903170    2.98458252362540    1.04611883375919
C         1.67289931262266    3.08429530640297   -1.85882022855188
H         4.38423689246938   -2.48636086213872   -0.49125730478957
C        -0.02108841654343    0.01434292365769   -3.00592919904187
C         2.39897147856994    0.96004202082614   -3.93648142424091
H         3.96150883398515   -0.96529724023193   -2.70271065536839
H         1.44140374823029    4.83403921535574   -0.53185231732955
H         2.18538039741136    3.42105786994301   -2.73555939641504
C        -0.87635253965551    0.98902581257340   -3.81425067345298
H        -0.56995886357066   -0.21339020229832   -2.06179799245541
H         0.04290435013490   -0.92831790940589   -3.55326822268212
C         2.45441660706041   -0.11787942332668   -5.02280147861124
H         2.01691736096569    1.86707538470058   -4.40939687169973
H         3.42099511581387    1.19042360500613   -3.62205232534805
H        -1.88457318787722    0.60335625230654   -3.96190109224812
H        -0.94961136595841    1.94973150581477   -3.30712213222846
H        -0.43442736467550    1.16309354168524   -4.79218596653346
H         3.14853813027745    0.16335425761545   -5.81404355631661
H         2.77069241208001   -1.07649003981199   -4.61870486497862
H         1.47388480905198   -0.25538402946496   -5.47036741650209

