114
CSD_code = EQAHAH | q = 0 | S = 0 | Stoichiometry = C42H64Cl2O3P2Ru | MND = 5
Ru        1.41193237202920    1.56650811096038   15.27737769210336
Cl        1.37848424642171   -0.60773782468901   14.52149531875234
Cl        3.03316553291576    0.86935357816151   16.74801468592392
P         0.27857646323252    1.83822542304206   13.28469798955938
P         2.22785971729906    3.72863318338578   15.67676887623881
O        -0.99253503936375    0.92070852536494   12.92920796984436
O         1.08632287510640    1.61869986602102   11.91520892451282
O        -0.22953974400125    3.32988408110992   12.99427270520357
C        -0.23975868052607    1.77529351921444   16.25280548421538
C        -1.35094065213356    2.63399839989842   16.02015145046839
H        -1.38577158888870    3.35862766193462   15.22478794070046
C        -2.39213091690235    2.32508023099050   16.86163795944944
C        -1.94688028510389    1.24543546686542   17.73946555136752
C        -2.54652231756289    0.61737618597976   18.81092621102584
H        -3.52423589579286    0.91629644371546   19.15978882098336
C        -1.85863033795244   -0.40785894394895   19.45658424680069
H        -2.32279664826469   -0.91198533479542   20.29205545554288
C        -0.59452206122532   -0.78691568480636   19.04298572757940
H        -0.08395073667563   -1.59142889168334   19.55114870025899
C         0.03607673848714   -0.13682281591121   17.98649521183743
H         1.02937494824825   -0.43221416966484   17.68197980957681
C        -0.63108220955973    0.89091930556115   17.34458609468202
C        -3.71958585093239    2.90797631589170   16.82624065670588
C        -3.88812103557809    4.26233139012682   16.52785463938324
H        -3.01564147756232    4.87503764288687   16.36350722964937
C        -5.14966092678757    4.82025698847371   16.47020065115713
H        -5.26236572678434    5.87164622648684   16.24749470791089
C        -6.27005534922098    4.03719212938620   16.69869888708936
H        -7.25650487547071    4.47452412990010   16.65488806371541
C        -6.11788300550521    2.68871649129244   16.97820502401994
H        -6.98888243200836    2.07115098788785   17.14381591715083
C        -4.85749916139246    2.12702047489333   17.04257727729003
H        -4.74796044000365    1.06933343594184   17.22787020081957
C        -1.79600427212841    0.12823554310156   13.80451174894124
H        -1.35521227177050    0.15032376059600   14.81080776676270
C        -3.20220305999903    0.71326045631122   13.83897378292906
H        -3.17529880278555    1.74107358048489   14.19016743541384
H        -3.82590497673721    0.13278478748128   14.51250720738222
H        -3.63712676258916    0.69081247707486   12.84218574194907
C        -1.79731532368880   -1.30352378390674   13.28244493201482
H        -2.15478565604708   -1.32624200267512   12.25538507302665
H        -2.44342114732965   -1.91905050249172   13.90154556632880
H        -0.79010775143073   -1.70996463916310   13.31829199101114
C         1.48000296008742    0.35088571113500   11.37823212815063
H         0.95769666436000   -0.44535735163222   11.91892003556842
C         1.06028238494678    0.33150209749707    9.91361775160221
H        -0.01533043555030    0.46771022774094    9.83508416426122
H         1.33102982087277   -0.61977320407740    9.46431957684910
H         1.55495070698371    1.13526472045290    9.37298322607699
C         2.98361692504989    0.17744374405334   11.54224173348051
H         3.51192426155937    0.98660321374853   11.04226020046222
H         3.29487294345774   -0.77231390831193   11.11600106164683
H         3.24173220400422    0.17815375727766   12.60082765262600
C        -0.94033016697516    3.67244831672869   11.79531244438663
H        -1.25093492443984    2.74755577022068   11.29740108505091
C        -0.01711826046233    4.46252903257997   10.87754703491429
H         0.30780963764968    5.37568899533027   11.37141872554727
H        -0.53700196837061    4.72208539818995    9.95904077057087
H         0.85747717163677    3.86475364903566   10.63835752069504
C        -2.17072354694018    4.47699094994618   12.19517655575751
H        -2.79662893603118    3.89765473232440   12.86943023074493
H        -2.74913429508837    4.73532869834475   11.31228575122744
H        -1.86898355136082    5.39247428926886   12.69914701213285
C         3.74328338180205    3.94787499191511   14.60961972460485
H         4.08500364614080    4.98472313994197   14.71565888434052
C         3.33438257093093    3.67313225653523   13.16253422038517
H         3.01718629166189    2.62659175915000   13.09400110565843
H         2.47999059434543    4.28771672015523   12.87298309902771
C         4.50019249489998    3.90808964924293   12.20786995170743
H         4.18583760691412    3.69955409561190   11.18261492882114
H         4.80395411921452    4.95780266165804   12.25477814097061
C         5.68264886970016    3.02123733577866   12.58545624601966
H         6.52899200620979    3.22238060761958   11.92487580998437
H         5.40455963218232    1.97239793029358   12.46199525548903
C         6.08268952026502    3.26469384841714   14.03681062781050
H         6.90748976732867    2.60363430994223   14.31025416032546
H         6.42954494255953    4.29565373602137   14.15082222976440
C         4.90242667407090    3.02110584629680   14.97487808523328
H         5.22565918848726    3.18598369751946   16.00397418464844
H         4.58081126616102    1.97783407494772   14.88827945309061
C         2.90234676189535    3.99553009293220   17.39601246912940
H         3.68855403318934    3.23092509136584   17.45193015304032
C         3.54578661851310    5.34707637507906   17.69680162587324
H         4.26510435058121    5.61628440773355   16.92055342657863
H         2.78892954052600    6.13088626850306   17.74896682319990
C         4.26067839787800    5.26482674312120   19.04614708476008
H         4.71799692884057    6.22919289860989   19.28068991049346
H         5.05901739926138    4.52174842872688   18.98685979423858
C         3.28625130377844    4.86847212713082   20.15210303191494
H         3.81870552737047    4.79381446895748   21.10238791682042
H         2.52381612376511    5.64454021054768   20.25767938951924
C         2.61040524077013    3.53885128830661   19.82653306462146
H         1.89698018324906    3.28102608919028   20.61162701683845
H         3.35955254566665    2.74638629954731   19.78127694803688
C         1.89071117557484    3.62797430028003   18.48354758333285
H         1.43083422581613    2.66534502632059   18.23883685727188
H         1.09903025565287    4.37320945676113   18.55525406259367
C         1.19017824321114    5.21888187979322   15.20390737842477
H         0.59838267608902    4.83350747553395   14.36515045997614
C         0.21783474495502    5.59074586931588   16.32445349210102
H        -0.26964299129834    4.69062382378263   16.70392105810133
H         0.76049419204885    6.05967650681762   17.14607728412839
C        -0.82016739621756    6.58622389025778   15.81273027970117
H        -1.51776608626773    6.84117408096085   16.61418082475640
H        -1.38927025155149    6.13501058237026   14.99653949559584
C        -0.12914139421735    7.84916639650058   15.30955111674162
H        -0.86726084156564    8.55123996515006   14.91566480734738
H         0.38368706945486    8.33773261160329   16.14141051142253
C         0.88378563489150    7.49775104984319   14.22612566799200
H         1.39761610224118    8.40144658307487   13.89004749059887
H         0.35815906295788    7.07419948898262   13.36662336066239
C         1.91156359449070    6.48368998019561   14.73229788037837
H         2.47925317857936    6.92708390061636   15.55173276925911
H         2.60077620751362    6.26794863447439   13.91665086762337

