72
CSD_code = EQAPOD | q = 0 | S = 0 | Stoichiometry = C34H35ClPRh | MND = 8
Rh       12.97006447329975    1.22890519011779    3.89950957332100
Cl       13.68553012288859    3.41902931797777    3.49533385693801
P        11.14276914607651    2.25899362985577    4.75344107899185
C        12.64816801615575   -0.91671010563536    3.45783654017526
C        12.08393053920978   -0.25960936057581    2.29049868391446
C        13.09820239212052    0.49248364528107    1.68782291385427
C        14.32295542657039    0.28956258399640    2.44373080462504
C        14.05887005690576   -0.66546612226232    3.46212263862085
C        11.98263862098693   -2.01251204904859    4.23357687860873
H        12.01395082025953   -2.93971592679494    3.65682875037854
H        10.94237469279305   -1.78122328002124    4.45094589932129
H        12.49511443927068   -2.18273818714944    5.17750859829908
C        10.71453177268981   -0.49638638181698    1.73056711750830
H        10.79721689979395   -1.09781519949353    0.82301444853577
H        10.21407071195428    0.43622918910277    1.47096126651691
H        10.09133028131093   -1.03979953712555    2.43635741406706
C        13.02593261823506    1.24022380010571    0.39401656848188
H        13.56197070822956    0.68592588031324   -0.37939688701144
H        13.49219418659331    2.22028739895509    0.48592826979756
H        11.99411505873731    1.36939803988498    0.07566403645629
C        15.66324564253081    0.77449100867892    1.98583765766128
H        15.95125502788950    0.24975906006394    1.07257792491270
H        16.42437754092763    0.59812228154994    2.74210647807453
H        15.63119003529754    1.84157464286568    1.77034557230863
C        15.07496546313941   -1.38406304912891    4.29554381092768
H        15.35355373033834   -2.31455251047473    3.79617517466177
H        14.68376554073859   -1.62788216654240    5.28094819803544
H        15.97199251226480   -0.78410612652835    4.42963878726614
C        13.82338299979265    1.16916349008073    5.74345335660350
C        15.08943228826509    1.71496250690109    5.93450512456876
H        15.55836012750389    2.29812176393790    5.15252787631710
C        15.75954680965291    1.54175885476413    7.13542032112694
H        16.74041101907024    1.97731008304245    7.26563191603391
C        15.18068653149924    0.81678266932648    8.16199847453958
H        15.70353942026833    0.68360920692629    9.09817209205178
C        13.92700074296603    0.26156427759267    7.97825548158154
H        13.46365183624659   -0.31043647125340    8.77060424787663
C        13.25526994519278    0.43176205758219    6.77772703480048
H        12.27691058298792   -0.01859766189402    6.66252902866566
C         9.93901676982132    2.64945614824809    3.43243507985998
C         8.55881016421994    2.57815942053500    3.60114022753301
H         8.14173685572372    2.28010674193882    4.55276634396413
C         7.71475759119365    2.89675814525139    2.55189213383969
H         6.64474441443812    2.83588504378357    2.68966458505181
C         8.23423163865534    3.29744418750216    1.33155790823006
H         7.56961789750338    3.54209881452560    0.51592498189822
C         9.60619702085072    3.39105028734745    1.16458173291372
H        10.01573904722683    3.71630178271925    0.21915221411545
C        10.45433094002963    3.06822628545519    2.20870097665909
H        11.52617271018345    3.15235032154645    2.08901091957406
C        10.11480955328829    1.34343702341625    5.95275871945239
C        10.10166304338685    1.64986829605143    7.30852808298149
H        10.66190488415869    2.49933483506139    7.67170605458963
C         9.37590241034721    0.86740201630577    8.18996254088484
H         9.36815170308142    1.11329266441362    9.24176087384069
C         8.66441804978182   -0.22816690893891    7.73040855972157
H         8.10098661934358   -0.83748917242395    8.42148550402902
C         8.67812809333898   -0.54332690311359    6.38046526020004
H         8.12381431227480   -1.39778025360799    6.01870098302925
C         9.40357599177186    0.23493365944092    5.49926538354869
H         9.41477369142961    0.00353853301823    4.44263615472692
C        11.30708531514698    3.87664962496972    5.58412748602240
C        12.36911777606140    4.08311399468852    6.45952021696843
H        13.09820685540672    3.29948849842696    6.60354091622695
C        12.50238041927246    5.28901040384963    7.12177912923423
H        13.33406419971365    5.44060806990400    7.79402437190042
C        11.57835810937120    6.30068341628775    6.91771083585932
H        11.68582022255294    7.24538356298268    7.43032605116689
C        10.52063882210304    6.10027369460420    6.04771811757095
H         9.80019659500394    6.88804076151254    5.88071176946591
C        10.38193901183598    4.89481290005925    5.38245004055712
H         9.55614049199725    4.75444766255973    4.70021883556408

