46
CSD_code = EQAVUO | q = 0 | S = 0 | Stoichiometry = C20H18Br2ClN3NiO | MND = 5
Br        2.63867431466016    3.02427773575323    5.92756626257689
Br        2.25743298496675    0.92071489325358    8.50864075163382
Ni        3.38150288233890    2.72254655432510    8.07827985189963
Cl       -2.20298411992605    3.01433015039064   11.43848684129263
O         5.37020356999688    1.70723188899219    7.45846461888162
C         1.91189619979949    7.65969805106262    6.94836935509385
H         1.88357222463834    8.67356436432806    6.55933057555341
H         1.03617852041280    7.12273400482651    6.59203234107637
H         2.79529027192825    7.16067910128270    6.55790851110824
N         2.36688689566269    4.18808728882034    9.30461351800485
N         4.58429168997120    4.16977082927233    7.94299369374991
N         1.90075514083167    6.35533695631723    9.02439559658638
C         0.19533274365271    3.51754157606528   10.34094555504756
H         0.43173666469649    2.47203857206625   10.45353700827013
C         1.10564572314133    4.40474280537495    9.77210435679367
C         2.81740036169809    5.35669095070864    8.86026898649214
C         6.27309172985840    2.67000166223372    7.17192115562916
C         4.98788394954409    6.50991530420411    8.17170651971187
H         4.64204862005032    7.47699603327561    8.49340561127546
C        -1.01895967577145    4.04480569907219   10.72151320878622
C        -0.44043047561500    6.27756949384865    9.98281985268957
H        -0.70438257894535    7.31516295134167    9.84942403784802
C         6.71317416497770    5.09006927901174    7.27347678219616
C         8.37151729183335    3.58044767822065    6.41467719946619
H         9.34925005087065    3.40011057264025    5.99468425377550
C         0.79354567640504    5.77202153091146    9.59409714670622
C         7.98870640968947    4.85572851064053    6.73408850169991
H         8.65307523604449    5.69170764972609    6.57975614606310
C         5.83467426898116    3.99482820690750    7.47413493534522
C         4.15513764492230    5.38032132542587    8.29957466532350
C         1.92527466191332    7.68950790032690    8.47405552062458
H         2.79850030710167    8.23116198929140    8.84837728483573
H         1.03639160116311    8.20501989838232    8.84183589643612
C         7.52912632251944    2.48563526822394    6.63713586578394
H         7.88686138277578    1.50039898047355    6.38698793232335
C        -1.33701631128792    5.39864316236988   10.54913805501602
H        -2.30707371800399    5.74840282136635   10.86415504549070
C         5.63589070091343    0.34572773947050    7.13033226895870
H         6.10768300039515    0.28781059603145    6.14411441348815
H         4.65003201501261   -0.12552790527177    7.07567809587807
C         6.24038986402244    6.36713639834999    7.64550437111740
H         6.88517915854589    7.22371405967985    7.51755458208735
C         6.47211801220793   -0.33718813096679    8.20378800927572
H         6.61118357605388   -1.38178073185072    7.94162229524769
H         5.95353252845297   -0.28606636041675    9.15848079191626
H         7.44737851689969    0.13373269424693    8.31092173094513

