73
CSD_code = EQAXAX | q = 0 | S = 0 | Stoichiometry = C28H32N2O10Zn | MND = 6
Zn        4.68179431929473   10.14420962511199    7.99419105390748
O         3.68231232346272   15.26235967923372    6.26126345902071
O         5.40380629974737   14.67056465883540    5.02641232869116
O         3.95826930247086   11.84929214240571    8.52774966571509
O         5.99056271808511   11.12078060603903    6.87126740907079
O         3.25949991084309    9.99733985503604    6.31900145747973
H         2.46197711938959    9.66611596499808    6.74651827259090
H         3.62788607264531    9.27273189297296    5.80158427147205
N        -0.10921053732061   16.77575523211071    8.68348650062963
C         4.66904652969444   14.36936790270719    5.93784862538952
C         4.76225786100618   13.14642667731968    6.71484083467874
C         3.87426583619955   12.87246443594839    7.79366329928369
C         2.85104927095133   13.86488414780957    8.04626702212406
C         1.88907148355353   13.71638220295733    9.05263796808007
H         1.92549272052102   12.81827392148088    9.64993513670256
C         0.93092306955822   14.66763795415124    9.27262777474707
H         0.21120963524769   14.49361242360958   10.05397246227070
C         0.86677562411524   15.84238347845592    8.48677891080259
C         1.83142918757104   15.98951617578875    7.48011963792533
H         1.87118770810482   16.85569506678765    6.84332400079420
C         2.79674264606771   15.02186278070100    7.26017780585970
C         5.74752973290819   12.22081321061274    6.33772042383387
H         6.36914920492462   12.52401527637669    5.48180925020970
C        -0.93904834933436   16.75295310736808    9.87009692677900
H        -1.39268200581163   15.76325839920460    9.98305021091337
H        -1.75368807575744   17.46442773730914    9.72026794614249
C        -0.18012005772376   17.12362572231058   11.14558493740124
H         0.66123202174968   16.45379599289466   11.30050890435042
H        -0.84504675959391   17.05466283091914   12.00273470545547
H         0.20077859713620   18.13926479309163   11.08398054399091
C        -0.23328663961130   17.92550100152410    7.81437534894321
H        -1.27574395314848   18.25579283754574    7.84122899578411
H        -0.02117564554090   17.61562054041077    6.78871668341262
C         0.67428005793677   19.09323020554352    8.20543792921651
H         0.38055304501113   19.50266027379744    9.16845620022460
H         0.60148039153841   19.88205214616623    7.46130718421825
H         1.70898158622611   18.76773943832974    8.26993831166517
O         5.68150191792506    5.02589739714394    9.72690771106220
O         3.96016622034117    5.61767307254063   10.96199957229776
O         5.40516799341690    8.43895080785534    7.46045569843278
O         3.37320595871488    9.16745674645473    9.11704490007354
O         6.10471971696974   10.29124389280499    9.66875194346515
H         6.90210456907786   10.62240814537814    9.24075182941320
H         5.73671109812579   11.01575974385501   10.18678870846257
N         9.47316243737049    3.51288548193517    7.30463030672206
C         4.69478837253387    5.91887230504568   10.05045507511369
C         4.60142708932929    7.14177955919640    9.27343392784019
C         5.48924841231904    7.41572676745706    8.19445601232280
C         6.51257775484559    6.42342907669699    7.94185858940321
C         7.47454628830597    6.57203649864636    6.93549690690670
H         7.43797713643211    7.47008567441902    6.33812757671068
C         8.43277955169204    5.62087072499730    6.71548926562507
H         9.15245103443989    5.79496591874590    5.93412510274879
C         8.49706069186938    4.44613536681891    7.50134193754664
C         7.53244603908007    4.29892027463687    8.50802880346766
H         7.49282146659736    3.43275870747939    9.14485985965118
C         6.56702558517630    5.26647021580764    8.72796871450742
C         3.61637069807034    8.06754215688199    9.65077704582781
H         2.99489633832436    7.76446991712782   10.50683864312229
C        10.30297238673760    3.53580880808308    6.11800043931616
H        10.75649290856864    4.52555794586456    6.00506787850082
H        11.11769714742539    2.82442447614467    6.26778949450443
C         9.54405449162331    3.16508069563824    4.84252283542819
H         8.70259669571118    3.83479266394450    4.68766347316086
H        10.20893827444497    3.23418535579914    3.98535110694135
H         9.16330966578668    2.14938150758992    4.90409546538358
C         9.59734983883607    2.36312164691960    8.17370193971454
H        10.63981110680976    2.03285480996648    8.14672984963694
H         9.38534135719978    2.67297380809731    9.19939288900091
C         8.68977876087446    1.19537154280026    7.78271171023974
H         8.98344861548661    0.78593430633795    6.81967806368048
H         8.76264198331219    0.40656091882820    8.52684906494158
H         7.65506814410933    1.52084272419478    7.71827525905128

