38
CSD_code = EQEFIQ | q = 0 | S = 0 | Stoichiometry = C17H15Cl2N3Zn | MND = 5
Zn        5.39161308570075    2.10896843881069    3.56268962482337
Cl        4.14968589943580    3.00629507153428    5.20534310748349
Cl        6.37014506856508    3.11776742601521    1.80909381409380
N         3.71372278983115    1.24134950200397    2.43940570369227
C         2.76845128198123    1.95395524638132    1.84082479081802
C         2.85338966932798    3.43077992687776    1.94078799212587
H         2.83920437229983    3.72310341748259    2.99112644054901
H         2.03766332968210    3.91558410094056    1.41343566874761
H         3.80761840261827    3.76661597403733    1.53448290099422
C         1.73359877313668    1.32223612980058    1.14377647602010
H         0.97250710831273    1.91507409807314    0.66184403963386
C         1.70125173402629   -0.05574414440671    1.08340017512050
H         0.91233500801724   -0.56596467730224    0.55085194684129
C         2.69783170152509   -0.78354289268061    1.71664602314765
H         2.68580246141567   -1.85986255517558    1.67888479058547
C         3.69835214717040   -0.09213662626018    2.39168758218484
C         4.80242301974755   -0.76735706317981    3.09573768753665
N         5.67764592403996    0.03552225324713    3.68507688456355
C         6.72328446391850   -0.42790245670502    4.35567064490950
C         6.93945164021050   -1.80245896339667    4.46508870480449
H         7.78241643077572   -2.19701542527374    5.00653759189563
C         6.04042351660903   -2.66308188301401    3.85906099812902
H         6.18384164605277   -3.73112063874078    3.92809077377476
C         4.95729605599598   -2.15274815386055    3.16430809540329
H         4.25650061452905   -2.82021355725485    2.69226380551473
C         7.59915846611710    0.59713903878106    4.94957504911733
N         7.22488449145447    1.86221447429136    4.74916460274704
C         7.93901976384395    2.86780714750146    5.23746880231404
C         7.45842552008947    4.24540416271520    4.97368073378404
H         7.39475604387290    4.40678941949912    3.89716355418247
H         8.11226750209133    4.98897070736209    5.41899688828688
H         6.44850428684343    4.35839938238018    5.36796114322256
C         9.10287262764304    2.62387640034618    5.97352861279077
H         9.67346012077524    3.45181094432391    6.36341399454961
C         9.50547669801933    1.32233928280773    6.19113499666747
H        10.40052283564636    1.10916510800381    6.75661507609147
C         8.74500735131475    0.28431318674504    5.67339313310582
H         9.04648814736330   -0.73693180271002    5.83478714974768

