43
CSD_code = EQEMUJ | q = 0 | S = 0 | Stoichiometry = C16H21I2N3Pd | MND = 4
Pd       10.83155094429674    2.54593941934576    2.70837967173381
I         8.34859609057683    2.54594465366480    1.88484254680910
I        13.38105292084856    2.54575407548180    3.27718355762894
N        11.56827698322535    1.45748357227015    0.05167012535693
N         9.83224956718644    2.54621140179615    5.62988163224428
C        11.36013555668972    2.54580411095776    0.81068953526972
C        11.91912701797825    1.84255050409130   -1.22487761200422
C        12.23090508099171    1.12258874924082   -2.36628267000469
H        12.23177814566709    0.04420965568851   -2.36975723635360
C        12.54064810645594    1.84924601578527   -3.50075763432932
H        12.78882973845322    1.32511317226540   -4.41064750514923
C        11.43951904049232    0.10951546431045    0.54079924375006
H        11.14618820579690    0.14987511841052    1.60584037412507
H        12.39086653084587   -0.42013453612124    0.45542842750048
H        10.67142354366179   -0.42865099430778   -0.01894005036321
C        10.26534418848392    2.54604988697694    4.55404288552847
C         9.16505801829254    2.54617201309305    6.85872381487665
H         9.93421767869805    2.54622452647114    7.64283314056542
C         8.30068993379626    1.28254503683012    6.96853948378840
H         8.92843079752141    0.39732759681876    6.84100338256247
H         7.87521516092114    1.25516363282449    7.97366200515453
C         7.18178223167031    1.29358516570090    5.93038335998095
H         6.56717377824580    0.40025270408196    6.05093332118565
H         7.60874183585849    1.26588037303924    4.92532873404079
C         6.32293405298618    2.54595898973756    6.07651091899906
H         5.54459701124870    2.54591077163284    5.31281424129957
H         5.83895183515667    2.54589513479498    7.05663147461338
N        11.56828416345446    3.63422555022209    0.05180574797838
C        11.91916021558314    3.24932201511047   -1.22477898417955
C        12.23100050847916    3.96943768270121   -2.36606791241937
H        12.23193547282097    5.04781716435451   -2.36937801992063
C        12.54073142986821    3.24293210579701   -3.50064120087571
H        12.78895851506153    3.76718921232974   -4.41044739802496
C        11.43944451922382    4.98213630987066    0.54107862346974
H        11.14610866678564    4.94165949271598    1.60612476570128
H        12.39075766665983    5.51185662672495    0.45576657556028
H        10.67131233742595    5.52030886928047   -0.01860757536119
C         8.30049728438915    3.80966082309812    6.96858448929842
H         8.92809703474126    4.69498366761464    6.84108227772566
H         7.87502576853041    3.83693530042419    7.97371348253210
C         7.18157436591899    3.79848555848330    5.93044669363860
H         6.56681876819078    4.69170697919140    6.05107312796778
H         7.60850928682187    3.82632642719724    4.92538613809730

