51
CSD_code = EQEQEX | q = 1 | S = 0 | Stoichiometry = C20H22AgN2O6(1+) | MND = 2
Ag        5.19910043512084    6.46144618864327    0.00659853806220
C         3.02367204878886    4.28323803911137    0.79675048875307
C         2.09643729025840    3.31936064950237    1.13650680457182
C         0.79008252229613    3.70051809000576    1.53136181946237
C        -0.13121392451073    2.72470654714276    1.87268119917993
H        -1.12488265255969    3.00604289690488    2.17401624496901
C         0.23065125486637    1.37649271864491    1.82540933571625
C         1.52119170990169    0.99575398928031    1.43336679411773
H         1.73989111937492   -0.05782188261993    1.41593567840973
C         2.45857356047959    1.94562172576340    1.08856067468017
C        -0.71956496788663    5.49980792972293    1.91579581565291
H        -1.49722195887366    5.13350041027743    1.24046986793175
H        -0.65747884231431    6.58337742620803    1.83975052394606
H        -0.96032683558104    5.22239458600945    2.94538606704845
C        -1.91177203056180    0.62371251854104    2.54936417143275
H        -1.93439154891147    1.21673525623358    3.46757699423406
H        -2.35300923775684   -0.35231102804054    2.74105724650079
H        -2.48167480254951    1.12982328468343    1.76555967712681
C         4.15776336763580    0.35391728089819    0.62358855395958
H         4.11338223164588   -0.13380818322883    1.60044627216777
H         5.19209075647956    0.40601600563078    0.29009566603273
H         3.56912967978574   -0.21500273139358   -0.10024874520890
N         3.80295151825475    5.09001231936722    0.51218869472334
O         0.55689369871813    5.02284836738911    1.53853901981601
O        -0.58543469959832    0.36346189984388    2.13634371645741
O         3.71853634769322    1.69671828558309    0.69995248972574
C         7.37190631533765    8.64009510338392   -0.78937150968576
C         8.29719062157253    9.60466438579964   -1.13241763011147
C         9.60183320489365    9.22447989294650   -1.53381319188179
C        10.52255823626718   10.20124186721135   -1.87394852116467
H        11.51531316243649    9.92070057134742   -2.17901556980546
C        10.16135664983422   11.54940333723445   -1.82042546630916
C         8.87096765111636   11.92894672003764   -1.42673436463537
H         8.65209571833919   12.98243852395734   -1.40660115013190
C         7.93443452193137   10.97815894029019   -1.08215757105135
C        11.10482182242332    7.42541024971821   -1.94434996524178
H        11.89125821632471    7.78257598348811   -1.27435623235332
H        11.04046337285312    6.34129955855542   -1.87860624048331
H        11.33452297053701    7.71269661416683   -2.97376196178025
C        12.30654406984154   12.30486371343554   -2.53332985624855
H        12.33492676233603   11.71796508725482   -3.45530564285784
H        12.74979626252056   13.28178434779718   -2.71557042318914
H        12.87073905342241   11.79307236012791   -1.74908581925487
C         6.23240904921217   12.56801307538428   -0.62138155583799
H         6.27871782565046   13.05224149463869   -1.59988128729195
H         5.19717627263859   12.51479047667591   -0.29087801110547
H         6.81748308135771   13.14092753749438    0.10216012823853
N         6.59406118990433    7.83334541966413   -0.50101793305961
O         9.83401273162569    7.90202868958667   -1.54814590688794
O        10.97775371334618   12.56344532626077   -2.12721552583624
O         6.67478148408346   11.22594813343816   -0.69184240152162

