81
CSD_code = EQERUO | q = 0 | S = 0 | Stoichiometry = C32H36F3N3O4RuS2 | MND = 9
Ru        5.84118297050146   11.08812463471660   20.15260701990183
N         4.66365298811020    9.43385696932598   20.66792880932686
H         5.26010030945566    8.69077075018734   21.00137172079413
S         3.37610099067316    8.77322758311582   20.04803803347651
O         3.15956613987754    7.38862003180871   20.28655767665652
O         2.86408264642475    9.43397395781670   18.86761079491647
C         2.17927257414272    9.60514955619947   21.30209971768540
F         2.47052271075166    9.32049116061005   22.57906582118672
F         2.33853812281372   10.94800668758582   21.16940985998444
F         0.87654702772139    9.36228170482014   21.12680135295000
C         8.01911322170595   11.04845774250780   20.85922303023550
H         8.84296942404111   10.40458719567698   20.57784287884331
C         7.21427472901366   10.70457222973249   21.94127994285039
H         7.42119105491877    9.78918645539192   22.48314734283885
C         6.17471480038165   11.57031941140917   22.40815788934612
C         5.96426905089335   12.77082937875801   21.71895402830317
H         5.24195966770739   13.49215640994906   22.08159124580175
C         6.74320682656212   13.09747264801666   20.56708469745108
H         6.60844378340495   14.06834083092963   20.09668073929687
C         7.78452914280464   12.25217572084978   20.13114275766497
C         8.72840940646211   12.66755205001735   19.04202716345342
H         8.26884290151816   13.39590614479971   18.37722528234160
H         9.03911070778795   11.80204557241767   18.46136370433900
H         9.61980071799831   13.11949139807610   19.48165274858420
C         5.45215400260836   11.20499546061494   23.68382701724664
H         5.18230492883150   10.14536566460455   23.61459789816310
C         4.17199025260085   12.00221521700237   23.91850554643954
H         3.63133456434993   11.57657277893593   24.75971668778713
H         3.52850559960267   11.95793169861495   23.04537718420349
H         4.39215448621405   13.04271053015686   24.15106404553078
C         6.41216505723317   11.39280163376307   24.86669134663050
H         5.91979159390077   11.10538770874683   25.79202289543834
H         6.71274336592710   12.43624081587186   24.94516581306773
H         7.30640827602533   10.78587500109746   24.74942593297602
N         6.23536511008925   10.22622733844446   18.30675000721524
S         6.35579153460469    8.63169739604452   18.54900017432134
O         5.08000140710212    7.94985254437989   18.48335247475426
O         7.15707964795402    8.44797567338760   19.73721900620549
C         7.32502943094732    8.10285846299188   17.13740019764249
C         8.66731734154884    8.42580353436714   17.08826207868092
H         9.11715271035302    8.89097487774416   17.95085489023378
C         9.39680735983165    8.14024920121181   15.94906647781093
H        10.44711422247292    8.39024253466580   15.90373982269541
C         8.78866919149969    7.53867048653653   14.85166449563097
C         7.44115723183189    7.20502742290073   14.92830894977428
H         6.96230523525242    6.72784254086679   14.08602246985859
C         6.70788902958723    7.48677430734198   16.06707541453888
H         5.66221545906955    7.23724940321883   16.14955316746164
C         9.56665876528504    7.28176785007269   13.59802088337422
H         9.15799819066398    6.43487078204745   13.05291904147525
H        10.61355296645208    7.08966231194976   13.82015314593584
H         9.51299878610941    8.15744453882771   12.95055895921258
C         5.28985973315791   10.54967330926697   17.25786779933502
H         4.46298704771448    9.82329846147632   17.26610884299841
C         5.93122373539152   10.55707613171230   15.89250891974278
C         7.22897079694691   11.01714039930388   15.72344671747790
H         7.77265024504893   11.35391746342161   16.59145445058477
C         7.81765345489190   11.01655876328208   14.47232778439220
H         8.83314747544229   11.36616892741044   14.35449432728135
C         7.10609628752530   10.57003431130024   13.37213689917796
H         7.56341853575170   10.56900218183715   12.39346734005799
C         5.80416845645904   10.12675908155909   13.53030301866647
H         5.24385859498640    9.78110561982367   12.67428533499683
C         5.21978228730680   10.11808828800289   14.78405353373887
H         4.20689733987231    9.76563280780085   14.90932571248710
C         4.70528118997735   11.93835564678911   17.59917783286662
H         5.52681104670236   12.66936550501815   17.57532021806874
C         3.63541918653789   12.33475326107785   16.61424782060080
C         2.39904237704710   11.69684218508658   16.60975827430351
H         2.19033533010405   10.91262673054689   17.32173117220815
C         1.44207660086571   12.04760060952567   15.67342606339384
H         0.48461405122218   11.54880900806538   15.67780997931334
C         1.70849756042787   13.02664005506990   14.73070292940612
H         0.95976529975810   13.29489148874958   14.00029008947398
C         2.94143547007496   13.65518571494748   14.72355996892599
H         3.15978866821953   14.41330658596088   13.98606358932336
C         3.89851933233389   13.31149468018680   15.66201407336170
H         4.86345209673854   13.79826522478748   15.64954655558378
N         4.22945125348653   11.81940681001694   18.98532341745065
H         3.51228141317714   11.07370633349466   18.98739722997088
H         3.78275746920852   12.68741047335423   19.28786982227734

