38
CSD_code = EQESUP | q = 0 | S = 0 | Stoichiometry = C8H23Cl2N3OTi | MND = 5
Ti        0.88184828874910    0.36485509952741    7.18770224986885
N         1.55964873568516    0.83334259238026    8.64416041603074
N         2.44383199694789    1.07486028729220    5.91032307846618
N        -0.97296028151774   -0.35909906400569    7.96069562551724
O         2.09847654197613    0.86203588208764    9.89547771443349
C         2.60286734363296   -0.39915287453613   10.39010846780949
C         3.13220086977454   -0.06843080755387   11.78429157097792
C         3.71555799550581   -0.92180861352829    9.47841403694900
C         1.47284297256848   -1.43289542145964   10.45799473959915
C         2.12693300271218    0.69883101562415    4.53409839281001
C         3.83756554765069    0.79148418231007    6.23664905254193
C        -1.88096615937748   -0.68060347521519    6.86002899535101
C        -1.59680240643168    0.55410306796892    8.91796872012674
Cl       -0.28263350062858    2.13191997633513    6.31500106308605
Cl        1.28066218950793   -1.75733212491592    6.54405978908817
H         2.29086962686827    2.08599197584017    6.00669684522189
H        -0.75744582545281   -1.23350186913366    8.45251140876434
H         2.32509566368163    0.30350195925733   12.40934136580955
H         3.56127096665143   -0.95480260511263   12.24267305723367
H         3.89426092227304    0.70269165172399   11.71501801789023
H         3.30536949675109   -1.07188610788211    8.47691052959988
H         4.09471972801985   -1.86750096661897    9.85457480258202
H         4.53204288116838   -0.20464215063357    9.43150122890609
H         1.15889962550353   -1.67964715852778    9.44018703137689
H         1.82452215730214   -2.33643764523827   10.94792747386075
H         0.62970991619773   -1.03056420696260   11.01719690465211
H         1.09692785556953    0.98694287467861    4.30522577693465
H         2.79881102033142    1.19144374630337    3.81620559398460
H         2.23210303025619   -0.38396249983155    4.42156015506796
H         4.04554763293075    1.14574587839145    7.24807702569572
H         4.52407154669882    1.28249709963814    5.53152131365607
H         4.00449056033821   -0.28810682477783    6.19178178141881
H        -1.41337863470099   -1.41701762115029    6.19964927289073
H        -2.83139147790804   -1.09163253423772    7.22998291068299
H        -2.09079404352462    0.22966555232313    6.29205575849044
H        -0.88393399883656    0.78281068137254    9.71321332741183
H        -2.51191857941961    0.12332096745319    9.34866266186798
H        -1.84972320735306    1.48548008074831    8.40645184328976

