78
CSD_code = EQETIE | q = 0 | S = 0 | Stoichiometry = C24H46N4OSi2Ti | MND = 5
Ti        3.53127524755482    3.57285073070359   11.95232675013538
N         2.49594843623964    4.00878749486588   10.41066166340966
N         1.88380927730024    3.71023884303065   12.87204028357752
N         4.62917558611320    2.08499105951516   11.41895856954560
N         3.80589278916675    2.36390288220659   13.93681601608043
O         4.57083829731277    4.84289836131453   12.44939494463004
Si        1.89357577800289    2.79162749977746    9.34759158774527
Si        6.12728948508624    2.48640429047914   10.69005468547048
C         4.74131184004820    6.17095292045969   12.79803689693065
C         4.17420434484788    7.07326771578615   11.68703440275156
C         6.24191854832541    6.46901281052339   12.98428866784000
C         3.99308639376775    6.45080963068358   14.11744667490213
C         1.48474811549532    3.15247810386005   14.13101655761272
C         2.76799139282177    2.75402590739777   14.88526582333693
C         4.46339035598799    0.84401539396916   12.13123158231714
C         3.53328795970372    1.05902755597099   13.34019211434558
C         5.10870886945712    2.37796673940280   14.58484246995236
C         5.82634909940350    4.02705553887163    9.60251666296057
C         6.84814602900483    1.03954019915624    9.64660097743602
C         7.55764882308167    2.90049648056124   11.92753696773504
C         3.25906683474086    2.05657425287332    8.23648263812745
C         1.09532723767843    1.34982228108478   10.36020640625127
C         0.50137353621083    3.40717493752444    8.17710696420691
C         0.25905371957092    5.62758778137514   13.02845617679417
C         1.20301561482442    4.73756693800056   12.25387141800365
C         1.53115079371856    4.91293520650840   10.93209148929567
C         1.00437613373051    5.92085725727862   10.02038057509034
C        -0.31556341822002    6.38265121289427   10.05056858169162
C        -0.75547088837639    7.33034968692972    9.14574712763900
C         0.10001761277406    7.83667752682629    8.18186650082564
C         1.40243342067136    7.36469088974459    8.11669331755828
C         1.84542084742180    6.41891204512143    9.01663088303847
H         4.30730969913559    8.12442181673114   11.93405694118155
H         3.11246774806455    6.86346631906584   11.55609313433799
H         4.68924427485890    6.85947217145276   10.75149072963674
H         6.39529881872520    7.51367136555930   13.24317345723965
H         6.65089215766422    5.84500784287577   13.77724430094598
H         6.77274657628591    6.24689830010201   12.06131700108736
H         4.02900935970251    7.50878667186323   14.36638885977024
H         4.44554663026299    5.88336953807756   14.93048143064467
H         2.95490019993058    6.14179651034420   14.00278258784621
H         0.90632615641692    3.84806366954620   14.75874431581675
H         0.84342143147987    2.26191506743397   13.98014024544657
H         3.13452715210678    3.62859644849292   15.43173071167264
H         2.56251454776452    1.95020045599717   15.61373610791660
H         5.42454663152001    0.43212382424702   12.48103590173397
H         4.01827601405027    0.06839875819305   11.48197057782859
H         3.66208315631285    0.24702711002556   14.07989811862863
H         2.49756637557862    1.05988288705266   12.98639382751740
H         5.87884724690984    2.12346621149417   13.86229201413980
H         5.14687509930078    1.66419923117477   15.42395722335411
H         5.31538792761900    3.37936765857156   14.96329940024508
H         6.51831866601312    4.82363134796117    9.85812876705572
H         4.80708089767793    4.38157861158587    9.76614743556447
H         5.95408061302961    3.81224705011052    8.54700221565400
H         7.82890661443431    1.29120313743065    9.25777399970933
H         6.95859121419459    0.14392399165133   10.25034321713503
H         6.21694548495502    0.78593904763695    8.80184731784455
H         8.43764171035504    3.25865905278779   11.40128908416586
H         7.25060401887702    3.67707859916948   12.62246339331953
H         7.86770471278507    2.03134086900561   12.50355232687978
H         2.84492689132418    1.27593976394883    7.60700821868058
H         4.04981536656372    1.62549393143354    8.83773372262658
H         3.69791637018453    2.80459208640421    7.58625337851097
H         0.36637100688074    0.79035397281916    9.78157099238574
H         1.85531924162850    0.64855375380603   10.69569514221451
H         0.58554690678018    1.74511456907209   11.23760505584202
H         0.16664121664928    2.60538214373693    7.52647931162401
H        -0.35945045554201    3.76288182445314    8.73344610074560
H         0.83733683728882    4.22363724173696    7.54718439675515
H        -1.01721763763665    5.96354926625718   10.75495477732058
H        -1.78189393827991    7.66870630739930    9.18460948912973
H        -0.24887330870165    8.57877556577566    7.47865613436902
H         2.07307018162042    7.73996998708596    7.35616838957904
H         2.85636258842311    6.03935336833545    8.96330825446124
H         0.63077616094092    5.80557613011920   14.03924612822122
H        -0.73143012606256    5.17603895566560   13.11287318933132
H         0.16172344845700    6.58999739188742   12.53287629699845

