55
CSD_code = EQIBEN | q = -1 | S = 0 | Stoichiometry = C18H24AuO4S8(1-) | MND = 4
C         8.48114910761308    4.11194310562344    9.48199853597578
C        10.86972715562123    4.24873794645092   10.78784703702128
H        10.31199146487694    3.46418167056643   11.29728017937167
H        11.89764205466391    3.91843966651105   10.64177789814178
C        10.86658743620372    5.53666713709546   11.63158886991409
C         9.46360499254669    5.96288546851905   12.06931085011556
H         9.56152351338961    6.81474013497431   12.74107557333920
H         8.95958909719145    5.14590604592697   12.58202982202037
C         7.73617892918280    4.98821211171509   10.16565396090025
C        12.84699282852071    6.67154540660478   11.34221243008665
H        13.03381426472071    7.70310513668370   11.67257182486896
C        13.78032186482924    6.33944733145185   10.18278965064199
H        14.81521435869399    6.40565452377139   10.51106661453542
H        13.58277642061208    5.34030056752687    9.80399700645232
H        13.61129671452539    7.04585948496349    9.37522280603833
C        12.96546422581939    5.69275891893034   12.53611657035541
H        13.55006640799320    4.80738384049010   12.23792266169979
C        13.58013953013272    6.30997893502562   13.78334637432912
H        14.60423366512314    6.61141552086125   13.57871848961833
H        13.00073219210674    7.17615057608876   14.09209751572290
H        13.57316740130487    5.58214618533303   14.58993196862457
C         2.94658360186627    1.09223915770152    9.90400123010554
C         0.54539435604467    0.89051333572488    8.61228049128115
H        -0.48979373392523    1.19518152629167    8.76302743121349
H         1.07582723995208    1.67773482536525    8.07942164565557
C         0.57081857778141   -0.41372996805048    7.79595968477733
C         1.97813397589336   -0.84213708280606    7.37628470413374
H         2.47390117497338   -0.03567061664899    6.83940651736572
H         1.88852361615123   -1.71430608856106    6.72979967033494
C         3.69984452663663    0.20513464569279    9.24389434624098
C        -1.42782351531177   -1.42924768891307    8.15518132005577
H        -1.95208045953688   -0.76103670224801    8.85792128672098
C        -2.01316115114510   -2.82798257575284    8.24504737462323
H        -3.06759107510697   -2.80631727954165    7.98139727086408
H        -1.48221175159674   -3.49637398794689    7.57232559185330
H        -1.90120042902175   -3.19815486501791    9.25984234797303
C        -1.45217837415147   -0.81403468233448    6.73744159072354
H        -1.51070888935359   -1.61214065905424    5.98175231343654
C        -2.58645004580738    0.17807602458013    6.51754363459928
H        -3.54208129506724   -0.33007848228691    6.62128463026795
H        -2.52937154245735    0.98715983161011    7.24147404384569
H        -2.51169318136058    0.60210315010778    5.52012310583565
O        11.48729076310650    6.60392552810443   10.96277941270034
O        11.62942979473004    5.30750599923500   12.80423155830120
O        -0.05260521644573   -1.47012054937626    8.46751115982687
O        -0.18522853202361   -0.19027388218335    6.60589338515728
S         7.92962981246211    2.53644419715098    8.98200408416480
S        10.17660141165412    4.45406075715915    9.11480429546031
S         8.40544608131620    6.53699814293948   10.70183099683576
S         6.09086449760102    4.68922703529678   10.65730913244677
S         3.48565034837863    2.68388945438586   10.36446736066826
S         1.25659527955078    0.73949897074754   10.28467233498125
S         3.04537808360533   -1.36543227481602    8.75668019512701
S         5.33983857142448    0.50841341534369    8.73846283747978
Au        5.71121385351528    2.60737167298409    9.68308637516556

