39
CSD_code = EQICIR | q = 0 | S = 0 | Stoichiometry = C16H14Cl2N6Pt | MND = 4
Pt        3.16865020842762    0.82106205904434   10.99726583756417
Cl        3.95682588321595    1.43623922942903    8.99843403556392
Cl        3.14812341677577   -1.33862845893196   10.42183827310664
C        -1.47695061172803    3.53750927307486   11.98567714610778
N         2.43570073013152    0.31703854082098   12.79350834788308
C         1.29395150138984    0.73506712425306   13.33123578415588
N         1.02410711972113    0.00333622118955   14.44641802231661
C         2.04210942399361   -0.88115359731072   14.60507111182842
H         2.07388378664314   -1.57255955859421   15.42172692968547
C         2.91118300923896   -0.68423114765077   13.57094993041228
H         3.81891969906038   -1.19879387609113   13.32556809154949
C        -0.11344360371795    0.10645334079002   15.31624804418293
H         0.11259602513662   -0.39925351077821   16.25371198285789
H        -0.98603502852424   -0.35405218904528   14.85240739289484
H        -0.34713887788540    1.15187560814115   15.51423983622257
C         0.37730256617207    1.73554027847169   12.80351359654186
N         3.15852312384067    2.74478327280412   11.55204938193061
C         2.10807413708835    3.45069598434899   11.95811654016147
N         2.45130091393507    4.76458581246303   12.04434146871082
C         4.18953208614725    3.60616248452559   11.38354317112469
H         5.14667900383152    3.27049286001686   11.03677550843843
C         3.75951426100518    4.86393562611608   11.69415882154989
H         4.27827382872728    5.80032450764800   11.68908563438598
C         1.61831376593990    5.87039786456947   12.42455167547281
H         2.25259848375785    6.71845388974717   12.67994962529023
H         1.00306946919234    5.60464231237226   13.28398894454444
H         0.95468076859319    6.14294368736644   11.60292841349519
C         0.74950182628855    2.97477721507100   12.17669399631078
N        -0.17663663438442    3.84291203953567   11.82155447104120
N        -0.89251081709931    1.46230293119753   13.02913929308039
C        -2.47621957253363    4.43284684266703   11.56518264408116
H        -2.17798112256945    5.35207291715890   11.08614931185499
C        -3.79374491715988    4.10832934674608   11.75364191414601
H        -4.56813014304609    4.78417281174709   11.42286860448526
C        -4.15752831111285    2.90099645750574   12.37071151308944
H        -5.20457698313146    2.67287644041513   12.50292362260660
C        -3.20492958139063    2.01455385875410   12.79941007522983
H        -3.46719357225630    1.07887851591823   13.26753002935323
C        -1.84479526173133    2.31511298452554   12.60789097672834

