49
CSD_code = EQIGOC | q = 0 | S = 0 | Stoichiometry = C18H22Cl2N2O4Zn | MND = 4
Zn        8.45302200824422   11.13041605553732    2.26767153254162
Cl        8.44546817493744   10.15039403777973    0.32706846925922
Cl        8.47049294085054   13.21318671130032    3.03919574198918
O         6.85398316303842   10.26877090727265    3.19515252679893
O         3.63933735756532    5.34945001654221    0.33846449420526
N         4.63537059623573    9.88986535573128    3.38334980115958
H         3.78636146376313   10.19790569384386    3.83965541626697
C         4.46578240299435    8.73951194550387    2.58623415423123
C         5.44562629169091    8.24140505381650    1.73878276686127
H         6.40289375202517    8.72627765448326    1.65770308692870
C         5.20177317416533    7.11452226065324    0.97374578025482
H         5.98598356882370    6.76545540302348    0.32239445300427
C         3.97567514839398    6.46260447279115    1.04275134116783
C         2.99035933964359    6.96806583050273    1.89448998499299
H         2.03983236163523    6.46129009896697    1.94071077265820
C         3.23261168533157    8.09112290405215    2.65225892681386
H         2.45747828377782    8.47246595736654    3.30253286790745
C         5.56472147431250   11.78830735594869    4.53354976513915
H         5.71503945451077   11.48083451763904    5.56776939161383
H         4.57543596451446   12.22593847827994    4.43264099094972
H         6.32457917303095   12.53125868578617    4.29493903542576
C         5.75072056818277   10.59597825150270    3.63689424625588
C         4.58672613423741    4.80836646127075   -0.55192289190398
H         4.85431215415181    5.52326395585644   -1.33605821579318
H         4.10524973030804    3.94183917790906   -1.00241693864447
H         5.49248286083807    4.48745655143511   -0.02775180033835
O        10.03233666352925   10.24119888174064    3.20139153114178
O        13.27318954545393    5.37904558497001    0.27633789843578
N        12.24643274408740    9.84924148408841    3.41370509668290
H        13.09006945190396   10.14378786880428    3.88849276967372
C        12.42400757168316    8.71754028865928    2.59202911138706
C        11.45229756647651    8.23794969688790    1.72472994901806
H        10.49511611696351    8.72337290728957    1.64632092043357
C        11.70400358276678    7.12882135953917    0.93665425116737
H        10.92603044869732    6.79441621531559    0.27031983858891
C        12.92984129242698    6.47608172574559    1.00215683781910
C        13.90705463533041    6.96293766244238    1.87385487243522
H        14.85757720762302    6.45590321237593    1.91717128289154
C        13.65705119286251    8.06850592525758    2.65446716805686
H        14.42599509507808    8.43550934038672    3.32015080462826
C        11.30585827945578   11.72494616389666    4.59299948968601
H        11.11141476390316   11.40062114644410    5.61465475037336
H        12.30566990619142   12.14629543273558    4.53704716135886
H        10.56810321536034   12.48611836532289    4.34206083212001
C        11.13015923762181   10.55390182457063    3.66699291137121
C        12.33312449667614    4.85606398581458   -0.63246632810712
H        12.07313433669762    5.58605229141937   -1.40517700162166
H        12.81762696593676    3.99765432068530   -1.09509113917961
H        11.42248645585586    4.52638052081463   -0.12240870791827

