74
CSD_code = EQINOJ | q = 0 | S = 0 | Stoichiometry = C22H43Cl2N3OP2Ru | MND = 9
Ru        2.71488052046489    3.61120241010776    1.77264038448919
Cl        1.06673182197030    4.36433300482237    3.26267812680477
Cl        0.98267089583191    2.41597295386689    0.71437799284071
P         2.85753442550008    1.86548303168057    3.26076230388638
P         4.98659796950582    1.00437445790262    4.39798931873969
H         6.02271941951056    1.84324557896333    3.98232333438867
O         5.45454628337396   -0.05891962945562    5.27574760312130
N         4.06076461391588    0.63230726736088    3.04554162298060
N         3.67336075776796    1.99137270406953    4.78902846280589
N         1.39478436047317    1.19561932259959    3.52803495133820
H         0.69273880360002    1.63221333147244    2.93232883768143
C         4.42795277576929   -0.25143572434260    1.95297190314906
C         5.86034917952864    0.06733437764549    1.52071618015743
H         5.93157194002713    1.09329349016221    1.16753260482967
H         6.18057416289006   -0.60001771553873    0.72391192167340
H         6.52586835957053   -0.05893077714786    2.37578342556187
C         3.44318023008822   -0.03444496283064    0.81176099996006
H         2.43760149276784   -0.30940852998342    1.11914182169200
H         3.72195994446254   -0.62377861876691   -0.05795135223102
H         3.42349376148358    1.02023208302688    0.54156344748701
C         4.38172421359922   -1.70018925348396    2.44957416778064
H         5.01965475199585   -1.80780507113160    3.32353256300599
H         4.72733260499948   -2.37555484297798    1.67059930457539
H         3.36844658428084   -1.97758004443914    2.72544191225067
C         3.62510644955510    2.97545217125811    5.85933032397921
C         2.19363057869771    3.10273758122926    6.37433144391132
H         1.53289768499440    3.35336256921911    5.54744890472606
H         2.13577393738495    3.89103806297733    7.12065114765386
H         1.86815249286344    2.17172328730970    6.82956959960315
C         4.10100388546656    4.33425028547927    5.34973340605169
H         5.12405415446078    4.25699001046778    4.98388360206811
H         4.06963335376958    5.07399736255988    6.14580122565222
H         3.44086168726093    4.65479811389626    4.54622903111202
C         4.55772430834515    2.47091332064160    6.95738096546761
H         4.25340759308354    1.47941969451720    7.28434536074831
H         4.54572427854838    3.14883055404611    7.80770897824620
H         5.57691691169780    2.39806788793424    6.57433605302171
C         0.83315440152966    0.05138752410817    4.25555789029575
C         1.83738700497762   -0.53852947502347    5.23699954546852
H         2.77460746926275   -0.77275731021324    4.74246477254948
H         1.43140311928525   -1.45062436786048    5.66859542073576
H         2.04559535601745    0.16073254770488    6.03971549047047
C        -0.40366084489126    0.55941069753130    5.00325651707440
H        -0.13512734495551    1.37618751961822    5.66655888462760
H        -0.84392914861368   -0.24176485060288    5.59118984867036
H        -1.14745269820225    0.92368471548273    4.29848276181776
C         0.40283900556090   -1.00709029933542    3.23490027455677
H        -0.22635563892320   -0.55829402550459    2.46956441555811
H        -0.15624209712095   -1.79912487124857    3.72659038274773
H         1.27103539903034   -1.44576494511139    2.75139255024170
C         3.61218445604521    5.79346186109339    1.83881158857756
C         4.68170621076942    4.89922732950967    1.97240525742716
H         5.39995913907776    5.03200549962606    2.77259663419180
C         4.89313386514348    3.87804305434513    1.01081441041481
H         5.78265372070328    3.26116814029442    1.09624768126766
C         4.09020440246391    3.77642813062288   -0.14196254397392
C         2.99099159599180    4.66804638820969   -0.24917490096077
H         2.36074075852024    4.63151686754434   -1.13020930243430
C         2.74798743927145    5.64568667114640    0.71867014307939
H         1.93703304537727    6.35323854860428    0.58161657270587
C         3.38566036973801    6.91457842621973    2.80336189680061
H         4.19686245130515    6.98757707221922    3.52404205724469
H         2.45105760052001    6.74797746890790    3.34400288622833
H         3.29588938141369    7.85871708626752    2.26671050987233
C         4.50761381170763    2.88463599075300   -1.28844923233268
H         5.04423832600475    2.02187747329606   -0.87740334469581
C         3.33395541194481    2.37119799689067   -2.12275369842218
H         2.53435559794197    1.99937050986519   -1.48519823928990
H         3.66829672578704    1.55964029493095   -2.76424425139672
H         2.93389328073223    3.15661401854215   -2.76028202429665
C         5.48602920407404    3.67583564036323   -2.16795492173758
H         5.00148298827624    4.56245175204736   -2.57298181932128
H         5.82061554353513    3.05712001751919   -2.99687847237337
H         6.35757350123121    3.99073115653850   -1.59673752261893

