43
CSD_code = EQISOO | q = 0 | S = 0 | Stoichiometry = C16H21Cl2IrN2O | MND = 8
Ir        3.14277910967307   13.38127831332031    1.03057314828516
Cl        4.70540513467789   15.15091331575433    0.79434101838727
Cl        4.91654209344936   11.89573687205912    1.34314475668689
O         2.15973577078661   15.70198483825964   -4.12728169459859
N         2.85112740967792   15.17261983691156   -1.57526181211830
H         2.68624648794504   15.85456445204407   -2.30971869797762
H         3.34568139898328   15.44783035343900   -0.71766883754416
C         0.89311314309082   13.54865074091491    1.05135587798381
C         1.31295198177975   12.32366080002138    1.68296420046634
C         2.04845090127668   12.66601077959114    2.86413741571931
C         2.19321974700432   14.08442202567625    2.89147340316529
C         1.44172425810094   14.63083075691803    1.78025068623175
C        -0.04336505707722   13.64321129690623   -0.10801332633219
H         0.13249812382684   14.54748927349937   -0.68598654902324
H        -1.07232505002788   13.66358019315908    0.25504568300592
H         0.06210220432630   12.78570063109231   -0.76993637163485
C         0.84315011164777   10.94660212918362    1.34419185069654
H         0.61671980634345   10.85644663777729    0.28406139105372
H        -0.06246083649221   10.71099037030663    1.90669618719863
H         1.60438619301304   10.21341149573798    1.60024349869414
C         2.51680035071841   11.68864994293417    3.88984598605918
H         2.83935215564906   12.19907784764591    4.79299746516323
H         3.35546416488457   11.10541449062434    3.50841833964759
H         1.70936059387317   11.00146846858402    4.13953561891295
C         2.78298062034375   14.90433492775613    3.99257221912437
H         3.25000068812702   15.80063649070036    3.59065235253312
H         3.53722248569882   14.34202410082349    4.53688112575416
H         1.99983296007945   15.20862985530754    4.68957737708938
C         1.20378353526663   16.08736199656297    1.56075438734700
H         2.14418654973649   16.63486488458179    1.59365863626775
H         0.55712968135828   16.47863331561746    2.34725618201095
H         0.73081320290146   16.26898094406911    0.59968687683075
N         3.25942052685252   12.95969813295223   -1.03238769453375
C         3.34789341633064   11.68679841806627   -1.40883928229333
H         3.65183747443792   10.98881195423081   -0.64048500957907
C         3.09917736974058   11.24732176915293   -2.69840063267435
H         3.19229649140131   10.20118235178664   -2.93587886400614
C         2.73393363080214   12.17653272188670   -3.65264341651887
H         2.52137878016377   11.87707224554732   -4.66862000308708
C         2.64533770204812   13.52050220520700   -3.30266819590923
C         2.93648524845416   13.90435128783257   -1.95615462057061
C         2.28922136453476   14.50799579060990   -4.30418993494815
H         2.13200807456937   14.07412074488674   -5.30868074095988

