74
CSD_code = EQISAY | q = 0 | S = 0 | Stoichiometry = C33H33N2O4PPd | MND = 4
Pd        4.40689932565095    2.61979713209738    6.28676321047884
P         3.22534569060248    4.48163763433974    6.56788927128749
N         5.55235057942398    0.90305067118035    6.12231538739840
O         0.53166502531075    4.78382492989620    3.59749859711717
C         7.23116260816832    2.53732637211413    6.45998654447736
N         2.01309134584308    3.18007587367301    4.24622357600569
H         2.12008179777685    2.42291212537542    4.92416195947577
O         7.59475531794060    0.11076350256320    6.53252452652635
C         6.78137433187656    1.16564816280412    6.37652577233366
C         6.21018347710622    3.50243747129543    6.35144401060609
C         4.16331979305589    7.21350564038387    9.51100025504570
H         4.03887001968021    8.26858430351067    9.70751629275650
C         3.65837925841563    6.66952402507837    8.34243087504559
H         3.15244797994792    7.30393388517255    7.62922118145795
C         2.17585192910097    6.78722876354476    5.34784883724345
H         1.42774304424309    6.78308880353331    6.12886176943814
C        -0.80056162130337    3.87309524255764    6.15909946006363
H        -1.49484123463352    3.77655817459449    5.33745166676084
C         3.14982200691960    5.79454196857565    5.30950075230796
C         1.00702528953433    4.06050343880375    4.45125240699314
C         1.00835447296481    4.13824952202575    8.24167958333705
H         1.71451532370743    4.23672411737173    9.05408510461220
C         4.82849606928824    6.41188274424491   10.42349674437746
H         5.22089410069897    6.84249291721336   11.33313039032330
C        -1.24053768501392    3.80386545583689    7.47052413093023
H        -2.28861944335306    3.64947477680029    7.68035612845254
C         3.06975671633184    7.74352328270683    3.33716665276848
H         3.03153527356214    8.49816356603097    2.56569475541763
C         4.07356606823516    5.77841879910172    4.27114504284570
H         4.81392367230198    4.98703369772043    4.24041598512809
C         0.54549979692445    4.05356371057289    5.88002310923413
C         1.45812228508560    4.21553937014395    6.92833499129905
C         4.49966538004236    4.51026208908465    8.99820587963600
H         4.62426008777923    3.44552891525038    8.79046621405970
C         4.03465561890749    6.75114335467296    3.28935404539686
H         4.75031964731714    6.72986879143538    2.48038704851202
C        -0.33303604130680    3.92379071971001    8.50976967180775
H        -0.66959220235039    3.85633407148616    9.53402331370460
C         7.93358963962396    5.18358677173738    6.60120309689543
H         8.20419639126311    6.22864543851863    6.65634111022369
C         6.60119941111542    4.83397421001267    6.43578325236927
H         5.86559075764846    5.62774374820567    6.37174902951966
C         2.54968765830372    2.89969704195085    2.92537053862614
H         2.73822380431111    3.86586234358789    2.44119387097588
C         3.81940781093411    5.31328533036126    8.08258934114766
C         2.14131394386374    7.75846586784503    4.36460352215385
H         1.37765801173521    8.52129640876399    4.39236293695050
C         3.84841582622201    2.12018796461852    3.10548639562834
H         4.55231049200720    2.68779216767681    3.73471721353706
H         4.31521089402902    1.92613279319986    2.14285187457778
H         3.63061666944233    1.16511619287069    3.59025798844909
C         5.36380791778807   -0.52848937553055    6.12526181575102
H         4.96600263241746   -0.85752641896483    5.16015311774856
H         4.65093042695366   -0.80791547291169    6.90694214378962
C         4.99484308452799    5.05996691504940   10.16641496480911
H         5.51584861502887    4.43533635912206   10.87676110697431
C         1.53990703135197    2.11064293337718    2.08994881260206
H         0.62832854763767    2.69098060599566    1.97498513985272
H         1.29951888213141    1.16992290025675    2.58139941702369
H         1.94548145437939    1.90004501629812    1.10393538381489
C         8.91934354676030    4.21307241466026    6.70396251090992
H         9.95163293671599    4.49881365393257    6.84082370198981
C         6.78918346530382   -1.06137705241526    6.39948517610902
H         6.85885723018001   -1.63442031688638    7.32736967370184
H         7.18645550012099   -1.65890790403774    5.57458676463458
C         8.57016117696063    2.87982134792625    6.63581380221928
H         9.31078167056874    2.09838312363349    6.72168457163711
O         2.56706279624135    1.35054257862119    6.32989523019798
O         3.29731808515900    1.51164847776173    8.39993836502774
C         2.46889639633980    1.11709164391297    7.57214337817209
C         1.25186128004340    0.31763169495294    8.02218706772009
H         1.00327030108716   -0.43907172559616    7.28266343515728
H         0.41085039239749    1.00317534488904    8.11335995126504
H         1.44299021362599   -0.14005104589626    8.98819915317896

