37
CSD_code = EQIVOP | q = 0 | S = 0 | Stoichiometry = C14H18Cl2CrN2 | MND = 4
Cr       -1.54322365252142   -1.92218633842429    3.17595409885371
Cl       -0.54375724932194   -0.12344732960777    2.51324692608499
N        -0.25210186988295   -2.05081032925128    4.76055465678997
C         0.95280702535783   -2.62895877991978    4.61992567788124
C         1.86792588492400   -2.69336736187827    5.65742571172828
H         2.82472232727871   -3.16538784862574    5.49765008973223
C         1.54429982629142   -2.15320254271849    6.89189983308807
H         2.23903791444533   -2.19250229962186    7.71609065711533
C         0.29857700396849   -1.56263609395059    7.03419702656648
H         0.00017998882387   -1.12916749479364    7.97592219951575
C        -0.57002006689103   -1.52640291172734    5.95624595022047
C         1.27437238020639   -3.21703933161458    3.28334205926841
H         2.23589153143069   -3.72291382896102    3.30613955597284
H         1.30921012806575   -2.42672701384941    2.53221123879189
H         0.49972266835487   -3.93345919798766    3.00429499781069
C        -1.91439630909696   -0.88416842365299    6.08304144817337
H        -2.07439697334502   -0.52195288957916    7.09498923703530
H        -2.69201419960803   -1.60882664391423    5.83721359919394
H        -1.98532833133481   -0.04364084704490    5.39110657416453
Cl       -2.54316291387381   -3.72079237362448    3.83784907131184
N        -2.83423145620362   -1.79331702914047    1.59121261958569
C        -4.03913290145941   -1.21522300772725    1.73186030264285
C        -4.95427620734105   -1.15082858209375    0.69435076929719
H        -5.91108596612571   -0.67883302107274    0.85413647563005
C        -4.63063513886379   -1.69096190272258   -0.54012320835076
H        -5.32537707244159   -1.65167185602372   -1.36432003880301
C        -3.38490604731129   -2.28149403435525   -0.68242398389668
H        -3.08650096671215   -2.71496542386778   -1.62414827188012
C        -2.51629154992600   -2.31769936094018    0.39554628084795
C        -1.17192302209025   -2.95994613518877    0.26869518398795
H        -1.01191897294464   -3.32210257074190   -0.74327551593543
H        -0.39430747317936   -2.23530708250331    0.51457074728196
H        -1.10099994948853   -3.80052006733694    0.96057306166356
C        -4.36077754098990   -0.62717469089957    3.06844190166114
H        -5.32234531087357   -0.12139159790706    3.04565207450026
H        -4.39553891390317   -1.41748882689763    3.81957015035560
H        -3.58619662341746    0.08931507016641    3.34748084211234

