87
CSD_code = EQIXAF | q = 1 | S = 0 | Stoichiometry = C40H42IrN4(1+) | MND = 6
Ir       15.06005832818645    7.77891011697477   16.34864864900269
N        15.00333490188943    7.10348990180435   18.34642965175963
C        15.42128533247307    7.75465226890797   19.43207014611171
C        16.05906995906633    9.10977299822212   19.29428930663947
H        16.93928325192225    9.01801375856988   18.65196706573689
H        15.36321576615859    9.79448215432740   18.80502543818256
C        16.47062071608527    9.65404330687373   20.65870944987340
H        16.95055740549501   10.62873404845496   20.57175071805771
C        17.20951581042694    8.54013349920220   21.41439178264763
H        17.81483182636178    8.89896316226119   22.24005076280782
H        17.79639153207789    7.84991117089567   20.81108542542315
C        15.81494196157830    8.04791337341334   21.84890311066546
H        15.69739966052436    7.56520705002076   22.81693069572723
C        15.29004447115578    7.22475447629159   20.72189124583841
C        14.70236319600284    5.98022549066645   20.87218197891212
H        14.58360682741335    5.54749174759416   21.85385948550449
C        14.28294990667599    5.30275954865444   19.74478765568454
H        13.83594526337065    4.32798942535986   19.83926195931821
C        14.44482756591675    5.87367278591328   18.48513499535307
C        14.05481563514834    5.21548757251499   17.24618011804717
C        14.31943448264721    5.92687734098781   16.06231834482226
C        13.99388657866233    5.32773954618183   14.85289560343776
H        14.19770960497001    5.83116135356506   13.91851016493654
C        13.41420946093317    4.06976245515351   14.80737954528307
H        13.17288631397070    3.62415475743791   13.85368436416762
C        13.14740966130420    3.38177325293504   15.97976287585218
H        12.69601479664009    2.40222120538390   15.94352135477133
C        13.46829206679686    3.94965857191187   17.19514724968771
H        13.26150478020427    3.40065041147669   18.10075902485758
C        15.31803284483641    9.51164865803999   21.68374600333292
C        15.54498250857629   10.34796985001185   22.93793749254716
H        14.85330362626998   10.04383869262777   23.72064490698907
H        15.36991054196261   11.39943685994899   22.71911152579326
H        16.55492089312818   10.24682858390716   23.32133898297688
C        13.88595002501487    9.73404184337242   21.21201855141113
H        13.19643769862957    9.50474582777035   22.02223163585482
H        13.62368060600858    9.11170811319906   20.36060680733178
H        13.74993056767351   10.77784193461362   20.93443098493647
N        15.23598302576604    8.15719604624996   14.28222422241147
C        14.31532072158144    8.68685860547242   13.47657544996765
C        12.96030546141971    9.04669021512338   14.02102560830403
H        12.50231248077896    8.14715122333023   14.44156991969568
H        13.07148979416188    9.77046163384669   14.83109630647519
C        12.06945934407121    9.61388544002617   12.92015117593721
H        11.07709488251809    9.86109210165829   13.29694522306479
C        12.17826707861835    8.69444668120649   11.69515398446846
H        11.36564720766284    8.81256297348224   10.98622422361320
H        12.33136744881451    7.63531431325031   11.89417296507567
C        13.43508093220556    9.50582608117203   11.32336495557868
H        13.68772182098549    9.64730050454537   10.27451811972863
C        14.55697815826332    8.92893739835667   12.11829951355698
C        15.79870317299894    8.60796539353642   11.59690881570051
H        16.01578986381531    8.78594622382540   10.55468211200125
C        16.74521163080141    8.04726705172918   12.43106824589736
H        17.71158956123741    7.77670514616382   12.04146903113002
C        16.44871264482207    7.82102249607746   13.77246881403910
C        17.37706591121988    7.20513969289360   14.71036172499588
C        16.89230893823958    7.01010059780838   16.01599497216559
C        17.72694283879436    6.39356008500989   16.93833437332049
H        17.38662356215705    6.20639090645570   17.94692519029771
C        19.00698579689291    5.99082969273628   16.59188275290746
H        19.63596876835275    5.51044772989511   17.32669820948550
C        19.48023273458217    6.20005665409214   15.30684299092852
H        20.47778740182246    5.88786355147232   15.03840440717180
C        18.66880178251444    6.80187156624241   14.36752773741298
H        19.04697081647770    6.95352151920763   13.36835245714400
C        12.81726077205933   10.69872167068908   12.10574579253936
C        11.87719948026755   11.53486842951008   11.24495634573662
H        12.44720539396596   12.11024970927285   10.51859955360474
H        11.32271783590588   12.23125367217915   11.87080441529369
H        11.16190298023643   10.92305939319195   10.70526954329430
C        13.76293552497788   11.64269643023172   12.83874628695970
H        14.27045508438767   12.28120813054795   12.11811613291566
H        14.51927165725156   11.11407621454281   13.41303452284408
H        13.19513062959866   12.27826410285969   13.51591276271255
N        15.87506914108633    9.73479604118823   16.43311294353082
C        16.45674680054017   10.64231473704948   16.03622723453930
C        17.18192414333340   11.77464771867483   15.55963182153858
H        17.22660969825703   12.54152989726895   16.33306949024972
H        16.69277868338553   12.18501593645822   14.67592656647984
H        18.19547846760934   11.46906787229874   15.29912997825599
N        13.14776527334991    8.50519885785805   16.89809878946927
C        12.19999958363633    8.57174044118466   17.54377604131988
C        11.01718838126996    8.66155711872773   18.33653897420239
H        11.08913277614870    9.50926302928363   19.01819757686949
H        10.89669896748934    7.74491563822620   18.91436521275610
H        10.14894856750386    8.79317631847746   17.69080145211580

