87
CSD_code = EQIXIN | q = 1 | S = 0 | Stoichiometry = C40H42N4Rh(1+) | MND = 6
Rh        7.64542646946884   15.39336953903820   23.18269331661288
N         8.44900818704605   16.76909363005405   24.51204505713229
C         8.37954046982429   16.74758173240484   25.84255192591556
C         7.59310671924822   15.67069480533945   26.53881034744381
H         7.99005771612772   14.69097115704311   26.26072367001254
H         6.55444468161914   15.72053229794592   26.19708111587734
C         7.64589206400032   15.85401721161165   28.05222936946372
H         7.06595435761611   15.08850891902580   28.56744162866961
C         7.35362548431284   17.32836177983281   28.36625026690282
H         7.05362035746178   17.50583706140916   29.39355243932314
H         6.66531454593175   17.84130037110652   27.69680584364600
C         8.85480755978102   17.57432067200341   28.11806414125293
H         9.36510276906548   18.35970654225692   28.67193942032065
C         9.02216065450379   17.70267444513618   26.64208102045344
C         9.75404628722086   18.70304255773546   26.02626566454086
H        10.26153998566560   19.45104137399080   26.61625481580382
C         9.81403628347746   18.72831059914633   24.64719074155842
H        10.36922107287141   19.50307438127297   24.14643401421210
C         9.15237766089025   17.75540977656523   23.90283563042011
C         9.15572612687939   17.71513534184015   22.44751436716492
C         8.43551639817966   16.65863135749403   21.86592647380859
C         8.38960264131469   16.57217929784538   20.48112511056944
H         7.83584074230535   15.78335051637584   19.99012715622621
C         9.04282907881553   17.50375595871298   19.68880378583317
H         8.99158671902488   17.42066538612310   18.61321283066740
C         9.75382764151277   18.54114305892782   20.26914716936547
H        10.25797858062629   19.26647053261873   19.64924669466417
C         9.81074179574771   18.64890400327930   21.64336371665700
H        10.36337578383399   19.46418735727534   22.08424524245984
C         9.09922213329763   16.09534643061632   28.53054283994685
C        10.23033017383966   15.33646266389756   27.84684339288282
H        11.18700681976673   15.68386969401015   28.23223990744300
H        10.23273723924969   15.46898362764781   26.76825568051083
H        10.14147839961000   14.27362875435052   28.06429889676794
C         9.25374320712660   15.92995267152216   30.03800807979414
H        10.20800246758447   16.33871435623998   30.36342144281899
H         9.22938997335355   14.87386682119210   30.29900792763934
H         8.46533276246845   16.43193502921563   30.58904241638015
N         6.74879280358663   14.25980353082862   21.69443782162400
C         7.24550389313735   13.18504131810198   21.08324008852229
C         8.63161181650333   12.70335408100462   21.41427734477495
H         8.69430501891285   12.47701740166858   22.48185204597436
H         9.34155951285532   13.50854324806557   21.20055104256833
C         8.98844136030964   11.47162813682166   20.58827031986836
H         9.99701599980616   11.12211511828179   20.80823827978827
C         8.61396425876206   11.75235810075116   19.12580588919756
H         9.10411975235011   11.09575044943444   18.41484376969725
H         8.70908077251312   12.78295548310050   18.78838236311878
C         7.19403281025462   11.28866977391204   19.50565286789951
H         6.57788363177042   10.79155910239582   18.75917432653748
C         6.51835814557020   12.46404639126906   20.12623320065694
C         5.23847395362396   12.88343396846983   19.80756099087223
H         4.65367547614469   12.34666751969932   19.07612279493078
C         4.73086202985635   14.00256191375781   20.43685458379469
H         3.74113102130188   14.35245259378926   20.19756036678201
C         5.50055288629821   14.68326687981493   21.37625624678860
C         5.04737389034618   15.87741035434424   22.07504993942280
C         5.96142667175882   16.43443082699119   22.98457276125536
C         5.59543601100544   17.58427854981378   23.67089975326593
H         6.27349338823762   18.05593483099567   24.36928815422052
C         4.35378302184624   18.16730589242810   23.46920392060978
H         4.08977605155913   19.06390874793079   24.01033247247480
C         3.45503099624438   17.60940922163139   22.57504451305932
H         2.49038642502628   18.06728105227607   22.41897768633901
C         3.79888995492862   16.46927657934461   21.87848321184469
H         3.09270841121318   16.04655154781911   21.18055774411968
C         7.84447869183493   10.42792896998751   20.62509694223669
C         8.28692607066875    9.05822471137476   20.12325470096949
H         7.41888829207621    8.42899844609754   19.93843398417700
H         8.90637567340182    8.57133660966833   20.87378227922768
H         8.85932114669289    9.12313849863642   19.20381897431564
C         7.06981971480094   10.23542113081101   21.92338678926505
H         6.24631939233843    9.54368641427492   21.75640073417688
H         6.65724191580429   11.16471852069860   22.30701458352164
H         7.72500426138537    9.80858447877161   22.68061995272939
N         9.55099812687397   14.49327246279449   23.51522299136330
C        10.65380603616117   14.55601992569563   23.83170824596381
C        12.02625821457291   14.60717304044278   24.21929755263214
H        12.29494273409640   15.62994801791124   24.48448584475631
H        12.65329954914531   14.27689196404527   23.39118735138985
H        12.19414057776053   13.95695958670339   25.07796534328621
N         6.65307175527208   13.94656764034221   24.39416486148043
C         5.83395226013437   13.15849125574262   24.56219304281672
C         4.82721959379638   12.17496425682512   24.79791556756853
H         4.08502335133653   12.21262343502284   24.00028491371983
H         4.33707168093422   12.37215983327749   25.75130485821945
H         5.27681898440545   11.18224647399222   24.82431242494512

