87
CSD_code = EQIXEJ | q = 1 | S = 0 | Stoichiometry = C40H42IrN4(1+) | MND = 6
Ir        5.58420676960327    7.63130285649862    5.99780774489308
N         5.59365325791363    8.95451034027829    7.64503655680897
C         6.84104191837643    9.34521926840962    8.01313691336521
C         7.02499492338857   10.26363155777691    9.04349112332235
H         8.02017146420249   10.56204245801234    9.32562439322470
C         5.93452660666327   10.78535975776908    9.71040453205618
H         6.06489351727668   11.49469774333618   10.51353483987877
C         4.66574762404171   10.37630311090702    9.33628030047010
C         3.40599508353024   10.86255108252404    9.96852743485203
H         3.58115580765585   11.60120095596043   10.74812089128378
C         2.43759566778312   11.19588554977250    8.81716785377988
H         2.88672789629587   11.61085773129212    7.91540748807090
H         1.60589662261503   11.82187705111360    9.12281466676122
C         2.10827589813725    9.69594306704588    8.79325408941538
H         1.09730462344023    9.39110047577430    8.52303285730776
C         3.15219916659366    8.99830783349373    7.92617045467794
H         2.96424286634644    9.23572149924072    6.87590115836297
H         3.08962694137132    7.91317056913678    8.03644494547417
C         4.53886051862274    9.45013982027821    8.29297589993039
C         2.49676136826164    9.64211688728683   10.29171225104475
C         1.33554034260334   10.01166467158276   11.20803998124756
H         0.62438234760784    9.18926412218399   11.25175705601165
H         0.80728579533426   10.89770195988624   10.87037646202587
H         1.70104432071307   10.19781615607553   12.21563196354915
C         3.15166637451040    8.37961477730715   10.83439826764420
H         2.44366629888583    7.55408675129243   10.79919105361685
H         3.44026179169321    8.53500464497323   11.87181768175288
H         4.03934522480247    8.09078940269757   10.28061366579247
C         7.93732429778854    8.72426929505147    7.28281467959000
C         7.56961368240178    7.78816435655173    6.29974593642301
C         8.58069206376719    7.12813326623163    5.61534524453814
H         8.34037474544351    6.37655601715220    4.87692774872017
C         9.91613919549745    7.39767287357326    5.86832881718691
H        10.68324947914315    6.87016484178237    5.32115009451782
C        10.26772915218453    8.33854838142124    6.82238432099946
H        11.30761457056796    8.55065559052010    7.01801684240156
C         9.28393399763284    8.99543921999016    7.53201837667035
H         9.57172521940549    9.71658928153590    8.28132737194801
N         5.78160648328663    6.16082889455029    4.49474216571057
C         5.72697942025639    4.89186415405700    4.97527043943860
C         5.78116721247193    3.80032370901102    4.11269299304320
H         5.73897569444900    2.80010183287557    4.50864407865617
C         5.89988184860997    3.99746672212236    2.75134291977502
H         5.94723958227045    3.15898187821520    2.07325752610554
C         5.96671930152734    5.29334173753623    2.26853209443181
C         6.09397234014760    5.64616130320246    0.82540898134024
H         6.10272466088796    4.77351632675455    0.17542336235633
C         5.08048659902532    6.77569324281960    0.55821389224031
H         4.86857824346898    6.92246865495354   -0.49561695911199
H         4.14181160013713    6.72050360256927    1.10855031870336
C         6.14814171355578    7.72934658609741    1.11456903352480
H         6.20689415873906    8.73769078136409    0.70502689287625
C         6.01250829601559    7.75125476213678    2.63436748450118
H         6.86628881302502    8.25221744953705    3.09677013786579
H         5.11361196579240    8.31057931383085    2.90584416843476
C         5.90661250076660    6.35445579039254    3.18131171499502
C         7.21963542894012    6.70742037225632    0.66004074330177
C         7.62566774991784    6.89863265530641   -0.79714751816453
H         8.26722999074113    7.77247462761185   -0.88927446102514
H         6.77043105121836    7.03705090837874   -1.45081484374004
H         8.18209235285818    6.03132208770251   -1.14560887835029
C         8.48437863787409    6.55192438575233    1.49266223569526
H         9.06971234343512    7.46799686310156    1.44644233945752
H         9.08934200091171    5.74209298783986    1.09029995597084
H         8.28054508759221    6.33029735386281    2.53542162100845
C         5.64054980380672    4.76946428274376    6.42420045292854
C         5.64615788345401    5.97735646838524    7.14489732159123
C         5.62191605550809    5.91103316818416    8.53110518289185
H         5.65952119948630    6.81523165560369    9.12194981573246
C         5.56725136702038    4.69482105485597    9.19295753364595
H         5.54935339686190    4.67121903365804   10.27244358262579
C         5.53851444445811    3.51144587107442    8.47320816276664
H         5.49275866271573    2.56405659074418    8.98804680752955
C         5.58157600250125    3.54645662990936    7.09472823506096
H         5.57057676632802    2.61697316482115    6.54664524025837
N         3.53341041176802    7.27673179509447    5.58196315874629
C         2.63973107917768    6.63488555663084    5.25257606112453
C         1.51946579652035    5.84495814815482    4.85747822571548
H         0.59916612361371    6.41865027875131    4.96898979183823
H         1.46676477129253    4.95602444513307    5.48657811836303
H         1.62891223477238    5.54021696591771    3.81660786137611
N         5.54935469070603    9.47310386786030    4.96240185818455
C         5.70815549380420   10.60429233748133    4.84125723639460
C         5.90427723077431   12.00763302425748    4.67484384299234
H         6.72473376740456   12.18159030030703    3.97846301012872
H         6.15046005613119   12.45956584266091    5.63608916011092
H         4.99749024188097   12.46770530822339    4.28166494134393

