45
CSD_code = EQIZAG | q = 0 | S = 0 | Stoichiometry = C18H14Cl2N6O4Zn | MND = 4
Zn       -0.41382566614027    4.01099613873595   11.80058996611273
Cl        1.29837782868669    5.11188367862328   12.75436875310732
Cl       -0.87684849109985    1.92933685980351   11.38672451143267
N        -2.56744986451424    5.58978082736658   14.98800427955348
N        -0.41698867576171    5.01974433514716    9.96529633698741
N         0.45268538576021    6.30175500256177    8.41229501515640
N        -1.91664297288496    4.68416515390936   13.09831172197385
N         3.70528968363523   10.15310815841550    5.96428877280459
N        -2.55550871190802    8.88932085375844   19.51567700079094
C         0.46328452199974    5.95583914903143    9.71759432711988
H         1.13074102890983    6.35316496674677   10.45677675449727
C         1.27029209544415    7.25965606185845    7.80018377461391
C         2.44084046516103    8.05908567631927    5.86125425200199
H         2.74211969893710    7.96419371864490    4.82931294741663
C         2.51693849232987    9.30816023852950    7.93204639533325
H         2.87042496930162   10.16976164258148    8.47732528958142
C        -1.03588056028759    4.73980444953295    8.78398667668853
H        -1.80281048039671    3.99478937399526    8.72516957671837
C        -0.50329498844248    5.52219641024727    7.80816037306499
H        -0.74396359666540    5.60557286509025    6.76929069108416
C         2.87304205357878    9.15472597455467    6.59775055776051
C         1.64059709597006    7.11047882043213    6.46411461537635
H         1.31880803660199    6.24596236555828    5.90576921416613
C         1.71302417455565    8.36152443030610    8.53236813486977
H         1.41839767110499    8.47912718296457    9.56269278610616
O         4.05870328249221   11.09379281681897    6.63885535377552
O         3.98986389663895    9.98371421548630    4.79988934458519
C        -1.63499358578203    5.57785487208185   14.01216017903444
H        -0.77883484661526    6.22122924224573   13.97224697272057
C        -1.35460496445263    6.82090950144353   16.67708236000810
H        -0.42355309293584    6.48802161573222   16.24679129582791
C        -2.55827421863958    8.03493957592542   18.34952913784015
C        -3.49495384941540    4.63283733067782   14.65540435344574
H        -4.33495468761866    4.40378094447119   15.27676370695794
C        -1.35026688446281    7.63598244871700   17.79014657215523
H        -0.42557608333652    7.96467095316815   18.23911999549362
C        -2.56728084409113    6.41074978030186   16.12219040021782
C        -3.77419888964687    6.81630582367397   16.69074348052346
H        -4.71017526353539    6.51082353403196   16.25063755231025
C        -3.07188998809993    4.07526043288228   13.48994266988311
H        -3.50094114995216    3.28260971828391   12.91148324767006
C        -3.77047639047891    7.62747506253472   17.80670851123112
H        -4.69100990026872    7.95687541778730   18.26361834204079
O        -1.48106346866457    9.24052709416453   19.94783838789687
O        -3.62946826503514    9.19870528453583   19.98189541174132

