71
CSD_code = EQOCUJ | q = 0 | S = 0 | Stoichiometry = C31H33ClN2O2RuS | MND = 9
Ru        4.32168903027715    4.46162750999790    5.46182929468850
Cl        6.59301973773229    4.94297075053697    5.84849872963738
C         9.47129537375039   -1.05098470091149    7.94784033335460
H         9.71423405583443   -2.04237242247320    7.57482768439780
H         9.37092942002467   -1.10176951595295    9.03132883313092
H        10.29925017771166   -0.38053522521042    7.72269593004983
C         8.20554452120590   -0.53838883227301    7.32968281700367
C         7.48039239688165   -1.31360281995380    6.43444354285947
H         7.82866092876396   -2.30450105777174    6.18061765669181
C         6.31917001251635   -0.82637354568046    5.85761601449917
H         5.74574024603957   -1.40739186517429    5.15298466139528
C         5.88983041585427    0.44214807129107    6.17937367155695
C         6.58858109529645    1.22800149047008    7.07468015280062
H         6.22280026624140    2.22194980981425    7.28826861662993
C         7.74427030328139    0.73655379686571    7.64904999969211
H         8.30421599358746    1.34632760156951    8.34319630919292
O         3.95487457593037    0.28924472769963    4.38410826404580
O         3.49808697798926    1.39170119527687    6.52748075558182
S         4.42365946944710    1.15393548216490    5.44413501370946
N         4.91779069447702    2.57352048417578    4.84909775699555
C         5.46249967229071    2.42399692180217    3.51585601679051
H         4.71856875938855    1.89932809053186    2.89795568850511
C         6.72315279297224    1.58716696125447    3.51546614144663
C         6.78706117596909    0.42278917526414    2.76458433257551
H         5.93786594678389    0.12637223872740    2.16723786831328
C         7.92006851105253   -0.37136448724093    2.79758356012683
H         7.95650296175552   -1.27917227489274    2.21291758096168
C         8.99994118338817   -0.00791688044113    3.58222903778148
H         9.88197339442954   -0.63101537683548    3.61340938325103
C         8.94250792052616    1.15480424061969    4.33148221672459
H         9.78029187481359    1.44346756709943    4.94869835976584
C         7.81205793108634    1.94982740529437    4.29905730639470
H         7.76446464829964    2.84509468248570    4.90051487695327
C         5.76218552574549    3.82625628500297    2.96813112294248
H         6.63850907192234    4.18781205677131    3.51963282446371
C         6.12171336978923    3.81721538336063    1.50003053427042
C         5.44341156236903    3.05890673056149    0.55070928686626
H         4.61242446676311    2.43511811797129    0.84137413526427
C         5.83255397477677    3.07593317115532   -0.77778362560355
H         5.29341406482435    2.47924646374176   -1.49861981499218
C         6.90776666354660    3.84688364089120   -1.18290283556865
H         7.20872977111678    3.85790132553652   -2.21970286936752
C         7.60194831723883    4.59258073955022   -0.24601820485598
H         8.45176734021599    5.18650112555100   -0.54761104930055
C         7.21380627250201    4.57308547377936    1.08151945822730
H         7.77233961134853    5.14380482205036    1.80895220848094
N         4.66100589974297    4.76946312742086    3.35567462682930
C         5.13910343684300    6.13177876799858    3.09596858150978
H         5.35290261069570    6.27078243610980    2.03130389380219
H         6.04835993936696    6.30027994948197    3.67530407803537
H         4.40234405386703    6.86906362571448    3.40440837175824
C         3.44560577548977    4.47801601554905    2.56909885312013
H         3.16272188825895    3.44319154524981    2.78232560859637
H         3.71404388051313    4.55830990214406    1.50755119689118
C         2.21579182577174    5.36844543986847    2.78787684375879
H         1.57631955338115    5.24002668433287    1.91136671877757
H         2.49798203999908    6.42067890677879    2.81694096583413
C         1.37911091998441    5.01005454844699    4.02453776631845
H         0.55305483646509    5.72445270896820    4.10411630017729
H         0.95095836023297    4.01431137133578    3.88978521574556
C         2.18982159683734    5.02694545937862    5.28787658548044
C         2.91050356721084    6.20061332854628    5.66159632322312
H         2.77174672369963    7.11951754336327    5.09996504866218
C         3.73230432489373    6.20308691439177    6.79439182559580
H         4.26137117661101    7.10567002719302    7.08204889519295
C         3.78741024444894    5.05342340005433    7.63235360370090
H         4.37446089680597    5.08466150083797    8.54381901079609
C         3.01819004737305    3.93519136004981    7.32119732854742
H         2.99697073071759    3.07584918312794    7.97641759295433
C         2.24758321320378    3.90505556247090    6.12844926622730
H         1.66476997983042    3.01954615711985    5.91246592013076

