67
CSD_code = EQODAQ | q = 0 | S = 0 | Stoichiometry = C29H31ClN2O2RuS | MND = 9
Ru        2.39503819212224    3.72928340887075   12.17149175664912
Cl        2.38621622836180    3.25307093834576    9.87781107092027
C        -3.02903806510362   -0.81580118623365    8.63584731660421
H        -2.62236046255006   -0.54146061570428    7.66402932908580
H        -4.11276297021981   -0.74658634892819    8.59437855840259
H        -2.75545602516624   -1.85265510258193    8.82913504354853
C        -2.47286392238970    0.07585995360405    9.70479923766430
C        -3.31097194161644    0.75974469357781   10.57570734477172
H        -4.38202978546163    0.64976586792161   10.48417395413226
C        -2.78819900480886    1.58647207916948   11.55646369284308
H        -3.42088236509192    2.13301444719355   12.23754742134423
C        -1.42184067478485    1.72817822963074   11.65786673224144
C        -0.56822224921091    1.04966433471816   10.81040535664886
H         0.49649319642120    1.19739063614848   10.91766827678227
C        -1.09425094480910    0.22503255928156    9.83565228096564
H        -0.43534754307541   -0.30257304347490    9.16132572040670
S        -0.67441011000481    2.79366131968370   12.88443118250697
O         0.11403832744011    1.93207395915411   13.73561924220563
O        -1.70621840438871    3.57175472004339   13.53139490750702
N         0.33129558522966    3.75099921258673   12.06062561432174
C        -0.33904162319680    4.91586025959330   11.51899275359861
H        -0.81844532024171    5.45208782903574   12.35204405436270
C        -1.42612563389783    4.53063623636402   10.54044532597984
C        -1.12888950049879    3.78619224106020    9.40503612001958
H        -0.10898631680326    3.49359549655430    9.20633968703401
C        -2.13760099811030    3.39319940927609    8.54525494728769
H        -1.89514877623794    2.81077454390871    7.66882647906349
C        -3.45253799940030    3.73652255013258    8.80864990601170
H        -4.24027632557387    3.42227823525990    8.13945046095623
C        -3.75373536094565    4.47924877072874    9.93627454089522
H        -4.77817415589643    4.74726247834504   10.15046306998044
C        -2.74505840778232    4.87543658477659   10.79695588298794
H        -2.98532189779230    5.43732214240185   11.68698605738047
C         0.72055178645918    5.78898972866573   10.82845893681937
H         0.99491900244108    5.27484792900023    9.89993036247562
C         0.21205146125844    7.16280901955847   10.45928617993664
C        -0.57456138307851    7.93925240242573   11.30413433919509
H        -0.86243409749790    7.56999201093836   12.27622488110766
C        -1.01731734117433    9.18940439928017   10.90643191524291
H        -1.62829400288528    9.77630437138752   11.57621551600291
C        -0.68604938836791    9.68529339027263    9.65787541932799
H        -1.03366508420716   10.66011788773824    9.35051799541883
C         0.08272031964168    8.91613230226336    8.80146279811053
H         0.33621044865833    9.28714460457739    7.81961822226931
C         0.52346280597948    7.66677820342682    9.19903297498156
H         1.11083972572898    7.06661373781408    8.51943730454732
N         1.97037366825025    5.78123544669112   11.65122068239057
C         1.80356072582095    6.55446050921457   12.88307810423651
H         1.04212003144335    6.08747286847462   13.50862428199883
H         1.50817168695377    7.58407741174740   12.65629516965858
H         2.74538210039429    6.58536564406670   13.43032827547788
C         3.06145973271208    6.35884478706149   10.86185516478666
H         3.22756908980555    5.74169822642959    9.97742305413259
H         3.97640776780354    6.38287398332351   11.45283169657900
H         2.81922979927224    7.38068735484906   10.55262139964400
C         2.63603632124692    2.75729401073217   14.33040238853783
H         1.92880763346567    2.53765768575104   15.11702854524910
C         3.34359638884848    3.95344023849700   14.31890661381322
H         3.22170790663207    4.67157807137148   15.12118146303081
C         4.28134865887290    4.20183896807649   13.27814333373895
H         4.89743901918268    5.09672066610640   13.31983431608788
C         4.57689112046279    3.20748476468585   12.32621961714887
H         5.38685471706529    3.34432643635411   11.61752936233150
C         3.85130943294005    1.99085986826924   12.35446070275767
H         4.09407689522817    1.20832345800237   11.64199781454873
C         2.87091794378696    1.77892452368878   13.32953976452307
H         2.33162036234459    0.84284824881691   13.38195807878101

