63
CSD_code = EQOFEW | q = 0 | S = 0 | Stoichiometry = C28H28N2O2S2Zn | MND = 4
Zn        7.57316984540989   -0.38518325046933    3.69706015456753
S         9.07998228086884   -2.36445360328594    3.92665318203437
S         5.64922967141729   -0.93729010088965    2.23891951515104
O         9.08092614315122   -0.49231604168558    2.19974927556420
O         6.46335645114068    1.33123248700034    3.06618118673502
N         6.36694073070202   -0.69964948507501    5.47503241749543
N         8.96040759634113    0.88724403290274    4.73426049258208
C         4.32111523472868   -1.16435566328785    7.25749802138630
H         3.51213062584395   -1.34517596951818    7.95225986074784
C         5.10770358118962   -2.21944967146521    6.81602098197548
C         6.12517244267992   -1.92497535884738    5.91531166356510
H         6.77102290247550   -2.70322064522279    5.53238737510503
C         5.61620034889026    0.30254011677800    5.91233941596222
H         5.86032311031833    1.27948964812206    5.52111502288957
C         4.56988720504016    0.12770531823163    6.80715960956598
C         3.73139251966805    1.28075817528332    7.25852831138867
H         4.16385432896980    2.22296176231985    6.93338367965663
H         3.63913068523642    1.28656084253190    8.34318608008265
H         2.72943495312187    1.19824608460508    6.83832703006359
C         4.86266498613081   -3.62553241182873    7.25910285316139
H         4.18598669472379   -4.11640697460252    6.55965002876483
H         4.40676517554554   -3.64950713620133    8.24605841145626
H         5.79145303836592   -4.18973062813074    7.27660391369788
C         9.72271114460183    0.43112642007297    5.71655567262111
H         9.39248574078480   -0.48128832221895    6.19387925265386
C        10.89492813300959    1.05974159693870    6.12250121316400
C        11.26199238378444    2.21883071246396    5.45344387822793
H        12.17038163450450    2.73826201048787    5.72778850547573
C        10.46426657476520    2.71349083060194    4.42756895841264
C         9.31634990234714    2.00056870513086    4.10805266468609
H         8.65321749394164    2.32433617452441    3.32042603452224
C        10.84042266824575    3.95182540007363    3.67860391373123
H         9.99604405560404    4.32720177900859    3.10728943277732
H        11.65217429743046    3.73238839151944    2.98520063008254
H        11.18395378497728    4.72633772541129    4.36165631043449
C        11.72261277662841    0.48117575663887    7.22548444335944
H        12.14872129537777   -0.46989692731029    6.90840290955592
H        11.10827703452952    0.29196823363451    8.10370560143324
H        12.53317918709342    1.15240886862806    7.49775882279014
C        10.77989430061344   -2.08911126525206    1.79719866967530
C        11.42786918184406   -3.26051201151415    2.18103052230352
H        11.08280796654178   -3.78737545026146    3.05779052069092
C        12.49318272454321   -3.73514179848800    1.44057503848425
H        12.99209914786124   -4.64527855504759    1.73997335979424
C        12.92091853342922   -3.04966963003870    0.31417167668461
H        13.75295027414719   -3.42578719339854   -0.26351120743136
C        12.27999145816703   -1.88333888332193   -0.07305942539939
H        12.61151239277139   -1.35021831972076   -0.95239528756088
C        11.21491706147329   -1.40323774106109    0.66305434133277
H        10.69906703429776   -0.49910967932750    0.37595746760540
C         9.63810149910744   -1.54809671639417    2.55080319014084
C         4.60326440125588    1.51486095332428    1.61391594643374
C         4.56797624388860    2.90171487232876    1.76108818538277
H         5.28922953527778    3.37223072343884    2.41290020163216
C         3.62765933371311    3.65083645486616    1.08168114522491
H         3.60603747158056    4.72478025784892    1.19893914745242
C         2.71400338824591    3.02527522114421    0.24823400468774
H         1.98011883189982    3.61190093285048   -0.28521015189421
C         2.74321651120332    1.64747310024843    0.09795562383159
H         2.03172131432574    1.16107519894846   -0.55310631487489
C         3.68119424780767    0.89283505915678    0.77564269941812
H         3.71563465214190   -0.18011334628774    0.66509329583986
C         5.62456383445375    0.75083893352839    2.34857062308934

