56
CSD_code = EQOJAV | q = 1 | S = 0 | Stoichiometry = C22H27N4NiO2(1+) | MND = 4
Ni        2.82887218092927    2.08482577479842    8.48996936173871
N         2.56374776198370    1.19054899804901   10.25874326877578
N         4.44489053401936    2.95198021545982    9.24451393805111
N         1.24284690529462    1.09919419572905    7.91925585464918
N         3.28949945966831    2.81630921893791    6.88136561249781
O         0.78024035643580    0.99945005986988    6.65234211780375
H         1.42631390976481    1.55463425336322    6.09055721173042
O         2.68279482054381    2.42310779264206    5.83188325113092
C         2.69787353584668    1.92113942711007   11.53210671873142
H         1.86486887807197    2.62943550447369   11.57133504398151
H         2.58840412357275    1.21755657557831   12.36872291798408
C         3.98893506497190    2.71392994641331   11.74507316982979
H         3.80750165123145    3.38215376688212   12.58996849560556
H         4.80517272281623    2.06588615924654   12.04878469315091
C         4.40089011828012    3.59786772107742   10.56894660946575
H         5.38843698376353    4.02332543333554   10.79379785120103
H         3.68199133644034    4.41958374365295   10.49452535753652
C         5.39268606141527    1.81468786202041    9.17445021682964
H         6.39041565143629    2.15802387003287    9.48156246758126
H         5.45171568611940    1.51909162113509    8.11954309020204
C         5.05210017048886    0.56861004476175   10.01120786655642
H         5.60370022641587   -0.26267788017627    9.56613062577009
H         5.44360242009506    0.67370329707225   11.01983387356315
C         3.57999115315539    0.12937181706401   10.06489993145358
H         3.33101673617538   -0.37731491505399    9.12224864411230
H         3.49257868360221   -0.61001366427813   10.87396440489113
C         1.22537212201650    0.56274247480502   10.23385891711780
H         1.23080132235619   -0.39122318721603   10.77445875697340
H         0.51267884925217    1.21559699753271   10.74971605722928
C         0.69672075125657    0.37739734694433    8.83700642544216
C        -0.44128279511438   -0.52231150417049    8.62644445646079
C        -0.47110714421653   -1.78411591793316    9.22410970898104
H         0.36540601026951   -2.13138152746480    9.81269019219012
C        -1.54948073622488   -2.62396355584419    9.02476842670494
H        -1.55497076056375   -3.60213371095905    9.48042795175062
C        -2.61831472620183   -2.21444386513842    8.24368151268513
H        -3.46048950628469   -2.87184786478466    8.09431846567707
C        -2.59877714424968   -0.96267527685007    7.65091461673836
H        -3.42773555505387   -0.63875605986592    7.04135250984704
C        -1.51643901645234   -0.12303594998015    7.83047137173876
H        -1.51080285669258    0.85089148737721    7.36846799852785
C         4.85483730396929    3.96912470491843    8.24771558863625
H         5.94828077566878    4.04885788700700    8.21537782840105
H         4.45293570205128    4.94132740253077    8.55124303178674
C         4.30452531556326    3.63026591661722    6.88543113058191
C         4.87660324118286    4.25214003965154    5.69249890129825
C         5.70443939211845    5.37542446996713    5.82302145860586
H         5.90601863888921    5.80084119464917    6.79343757608093
C         6.25370645410427    5.97536129638509    4.70821843774602
H         6.88205250477862    6.84453489074657    4.82884878724259
C         6.00110767333865    5.47132655283861    3.44189355321523
H         6.43347682515025    5.94460866372125    2.57425497168642
C         5.18520909529515    4.36221484722283    3.29914297538650
H         4.97882952756739    3.96327077996200    2.31824655729027
C         4.62305008499805    3.76068139310252    4.40891357013572
H         3.98246151869081    2.90336923503139    4.27703566901744

