107
CSD_code = EQOJUQ | q = 0 | S = 0 | Stoichiometry = C48H46CdCl2N10 | MND = 6
Cd        8.51706444365026    4.21594365528416    0.32883850393264
Cl        8.56385230945477    3.19313313791543    2.46560488608984
Cl       10.28548392365802    5.78316326172669    0.15461347886970
N         7.38980086432523    5.22763901112979   -1.67829048006626
N         6.26568289881091    5.89004893489084   -1.38736577889034
N         6.78271295529499    5.71304294224726    0.85861514493728
N         5.79490208127436    7.05735442353355    2.50918163138523
N         4.18681754647086    8.62436281336493    2.03831897194421
N         6.99528732542543    2.41208567218824   -0.53651073191754
N         7.57803184349475    1.59079349619952   -1.41573524154910
N         9.62146808515783    2.52901208497513   -0.88105418768129
N        11.67181116732083    1.50279608388010   -1.38098334757650
N        11.82246789509741   -0.49586852777431   -2.49691608563596
C         7.40395968254900    5.01902955573125   -2.98129742714285
C         6.23246675961188    5.55826812706805   -3.55889009762877
H         5.94638084060513    5.54884585278720   -4.59097747974953
C         5.52438879136995    6.11296187139017   -2.51746065064934
C         6.06767497120434    6.34153108092710   -0.07949226954676
C         5.21222144655055    7.38038313955766    0.22206181934380
H         4.71078982088430    7.92895986142298   -0.55268849601944
C         5.04217608620728    7.68815526748269    1.58863302758457
C         6.63255835566009    6.13943942280588    2.10339817681793
H         7.23887495269266    5.65312919230496    2.85961178212795
C         5.69059062799800    2.23866153224269   -0.63240977178499
C         5.41434036791828    1.27241504916080   -1.62563432956693
H         4.45622655162952    0.91399627822822   -1.94291483019408
C         6.63963548235767    0.87128020157000   -2.10718387802525
C         8.97246532885515    1.49548554834151   -1.42626144962289
C         9.63509103009869    0.40079814076944   -1.94049397137256
H         9.09634146037591   -0.45632735521560   -2.29802198025882
C        11.04478536167196    0.46228832891803   -1.96069939815663
C        10.94321103460317    2.45214879408351   -0.85476265642266
H        11.46810087754289    3.27428621343875   -0.38080945261934
C         8.52031154989973    4.37401038884495   -3.66032649380559
C         8.31838669695108    3.68446177065858   -4.85480691112022
H         7.32308260714582    3.60190255618832   -5.26864434567937
C         9.38566250176604    3.09011402954843   -5.50483269462875
H         9.22053052125544    2.55936494433224   -6.43231680530588
C        10.66082099272915    3.17509382350580   -4.96937283088359
H        11.49143009201836    2.71268353462259   -5.48422212429716
C        10.86858899121708    3.87059666251507   -3.78875331901668
H        11.86256685475521    3.95249161603346   -3.37520341613097
C         9.80910976183475    4.47477304711839   -3.13585398613454
H         9.97364203139576    5.04300663909490   -2.23107824338961
C         4.20870654877929    6.74352677043068   -2.59785107746735
C         3.97898276877325    7.72562262262267   -3.55845100318445
H         4.78910933360297    8.03846451637143   -4.20012018520353
C         2.72974259946834    8.30817067676479   -3.67550767425324
H         2.56393739199557    9.07485631359832   -4.41734678038502
C         1.69471201642383    7.90860703666058   -2.84699910619203
H         0.71992753291769    8.36319447539963   -2.94037438635317
C         1.91216262183487    6.91860179875300   -1.90187700165030
H         1.10469364631956    6.59589563581830   -1.26170457087858
C         3.15942849885751    6.33751617036303   -1.77517539899112
H         3.32948413569692    5.56655071859363   -1.03873369951753
C         3.06952876940288    9.12015999698942    1.26758644439601
H         3.28216254350574    9.08823563476237    0.20041587716777
H         2.90537765344168   10.16521507906183    1.55005247755895
C         1.81996294437322    8.29610125126483    1.59149380730396
H         2.00167441097984    7.25851145017904    1.30211774599579
H         0.97297189282720    8.67120592989171    1.01532491107103
C         1.52715679785812    8.37272662819734    3.08863324775281
H         1.26518939740108    9.40041339009976    3.35193443039674
H         0.67459542756596    7.73790937691190    3.33611662417660
C         2.75464296651746    7.94085911007323    3.88872185278316
H         2.96799816403454    6.88698338393637    3.70264631393141
H         2.57658957231313    8.07041403082115    4.95637320251295
C         3.97301887104897    8.76222338396478    3.46587394927508
H         3.80875313503176    9.82205387778355    3.68218999361740
H         4.86911053487060    8.41767410510701    3.97911108191527
C         4.74245956696525    2.93093334464612    0.23078899383934
C         3.44064774078102    3.17743493346787   -0.20217093756303
H         3.13689876760587    2.87904659781638   -1.19589538734158
C         2.53943891070247    3.81748292398497    0.63032200259152
H         1.53062481077854    4.00215621636532    0.28775269457084
C         2.92789807562325    4.21892482566410    1.89832043252424
H         2.21767387081107    4.71341852536854    2.54622892051816
C         4.21755958745174    3.96523435007025    2.33770408702233
H         4.52094507568114    4.26289265666068    3.33023713237172
C         5.12337177070713    3.31943243322631    1.51540138958731
H         6.12065854348592    3.09466957126197    1.86680627029489
C         6.87845593968782   -0.07710076525071   -3.19280432001194
C         6.23272075601191   -1.31116803823354   -3.17578065020727
H         5.60198312658557   -1.56720976817060   -2.33759523196392
C         6.41352456011024   -2.20759361567498   -4.21370439359996
H         5.91596341718024   -3.16550083164829   -4.18675967383987
C         7.22840505126655   -1.87871581194529   -5.28387134789111
H         7.36822694783722   -2.57909539794087   -6.09349980743097
C         7.85951693778017   -0.64529785895037   -5.31516380371260
H         8.48618088782789   -0.38005836015156   -6.15355482731651
C         7.68774429546470    0.25228559036604   -4.27873094144445
H         8.17802868266826    1.21385087527424   -4.30358139689154
C        11.34664745340327   -1.46331720967490   -3.45918124931840
H        10.29151622922472   -1.68376387995868   -3.30720448511267
H        11.91177369400095   -2.38928510523109   -3.31049525332919
C        11.58636650648085   -0.93467906595326   -4.87637782992848
H        11.01536677077013   -0.01241826462475   -5.00571745661556
H        11.23247909720119   -1.66444332759284   -5.60600154455300
C        13.07471483372805   -0.65464487396402   -5.07472044349866
H        13.62754298009484   -1.59601934965848   -5.02557974661196
H        13.24517740872759   -0.21963449191441   -6.06107030994900
C        13.58376531577441    0.29052466857159   -3.98783847590272
H        14.66130104050608    0.42851203004657   -4.07876229344424
H        13.10412579901180    1.26554110278707   -4.08839679625059
C        13.25093957001545   -0.27127190594585   -2.60522472114519
H        13.54617626094532    0.42594408098954   -1.82298401965170
H        13.75606377046864   -1.23000227343564   -2.45445791513704

