107
CSD_code = EQOJIE | q = 0 | S = 0 | Stoichiometry = C48H46Cl2N10Zn | MND = 4
Zn        6.85591470353537    3.80571603996479    4.33951011552106
Cl        7.81898132765539    5.10538943514187    2.73055515910159
N         7.21905479499449    2.01953077923971    2.97778366124980
N         6.08712205643498    1.63675709836006    2.38155439249869
N         5.06080842699731    3.51283508343872    3.23906126910043
N         3.05838347992573    4.38468487895562    2.38784724903343
N         1.90914802215467    3.39790812171733    0.66505273045964
C         8.12112076287350    1.08211945193126    2.76107686506566
C         7.54137635004434    0.03400183217208    2.01425817232034
H         8.01270604546482   -0.87075904728755    1.68809571364336
C         6.24001250965211    0.41742290734829    1.78002149264296
C         5.02582169028334    2.53799202772148    2.32821615536105
C         4.02792848210999    2.45527358347937    1.38167055697009
H         4.06363925644858    1.71546830659644    0.60451847143355
C         2.98153382942291    3.39687827729579    1.47558820403345
C         4.08816340192065    4.41067819273453    3.18841623316844
H         4.14436265225789    5.22094784689013    3.90267868095488
C         9.51005948015628    1.19825366143572    3.18651382250569
C        10.22433733650290    0.06908255837810    3.58153085486148
H         9.73784691426894   -0.89668773914748    3.59763564326525
C        11.54877584903343    0.18404907535449    3.96558299586901
H        12.09699515441032   -0.69584720038027    4.27256347428775
C        12.17001768858657    1.42239852394176    3.95518028695073
H        13.20651314827807    1.50495641688951    4.25120006351218
C        11.46868700253249    2.54454491470741    3.54328720485399
H        11.95362500932609    3.50888454313594    3.51904280951246
C        10.14612466272910    2.43802343641088    3.15278274783620
H         9.59975227869907    3.30284044486118    2.80755173463507
C         5.20894703136325   -0.36486199803513    1.10325622386894
C         5.50371489946126   -0.97702411994731   -0.11281818958797
H         6.47418361965943   -0.82435373034782   -0.56083018358323
C         4.55477981426375   -1.75611395232135   -0.74994596776145
H         4.79011933827955   -2.21921806185699   -1.69650896315155
C         3.30796407710446   -1.94269684867874   -0.17702891984076
H         2.56833095794800   -2.55105716605565   -0.67544641930799
C         3.01438833390041   -1.35050970273631    1.04109921192717
H         2.04724333049469   -1.50191988111238    1.49690556739578
C         3.95624677475673   -0.56749447515428    1.68057858742524
H         3.72712428945532   -0.10787916804372    2.63042674392550
C         1.48652800447335    2.25095816011220   -0.10519604893399
H         2.33217406031623    1.61531320828805   -0.36157117446318
H         1.04212758016190    2.61741981226221   -1.03647457718329
C         0.44176167271405    1.46100633400525    0.68844820238155
H         0.11702347222317    0.59578166488225    0.10876557400682
H         0.90164934533489    1.10427598324629    1.61294336681890
C        -0.74539050263902    2.36457056447909    1.01555533737446
H        -1.46708724675251    1.82597151292687    1.63226335435661
H        -1.24697989546530    2.64969092746768    0.08747852768599
C        -0.26709854300065    3.62084065324766    1.74128736696490
H        -1.10005341457471    4.30502405427784    1.90448457362943
H         0.15115182181308    3.35187911849842    2.71255072926000
C         0.82015351160617    4.31923680075358    0.92388811691149
H         0.41772195229739    4.64626403996761   -0.03970708008178
H         1.22056598919335    5.17566118345068    1.46384610613476
Cl        5.89357935433378    5.10433562239199    5.94892722151497
N         6.49031550042043    2.01514758613418    5.70272181503812
N         7.62234125993698    1.63269983123613    6.29890927973443
N         8.64718646872541    3.50917760919027    5.44101938586795
N        10.64734864266000    4.38431450957730    6.29348974888785
N        11.80049971737095    3.39738823275298    8.01280191205558
C         5.58954155936391    1.07573068311969    5.91655080618818
C         6.17042471112008    0.02666919189749    6.66123172915678
H         5.70064865317488   -0.87988011313852    6.98466627136053
C         7.47087329966385    0.41184628238558    6.89769957128659
C         8.68321520756124    2.53443008176004    6.35198704187877
C         9.68162405599364    2.45220615647782    7.29810879872214
H         9.64707314862851    1.71169595271848    8.07470279508321
C        10.72668855439628    3.39536772735922    7.20427108054068
C         9.61783777901813    4.40904258409804    5.49271231444496
H         9.56013106772645    5.22025331169740    4.77965248590337
C         4.20082186663525    1.19312443679766    5.49096619866634
C         3.48379067458961    0.06535317604302    5.09697122696107
H         3.96747896345478   -0.90183327113950    5.08227997147131
C         2.15988624123069    0.18355500953089    4.71193483738553
H         1.60926404797282   -0.69528091482710    4.40622155938493
C         1.54200784938316    1.42361511666635    4.72029474601745
H         0.50605347153320    1.50874635545911    4.42312431365543
C         2.24596596033300    2.54435195138341    5.13150222267010
H         1.76385090933068    3.51014727409097    5.15366604619186
C         3.56791225200690    2.43458427212881    5.52309088772787
H         4.11648230874802    3.29811377812737    5.86800192587864
C         8.50189542839367   -0.36956325287518    7.57575518391502
C         8.20723746162302   -0.97872743118926    8.79338047542698
H         7.23742035872345   -0.82351895145468    9.24196172215418
C         9.15545284287451   -1.75817252076856    9.43114738754067
H         8.92031630389233   -2.21890563105945   10.37892884040273
C        10.40128688886828   -1.94830632935072    8.85725054293450
H        11.14010765358681   -2.55752127852265    9.35584816557936
C        10.69496911585239   -1.35845248494380    7.63801267879560
H        11.66143420438708   -1.51252048678382    7.18162797312038
C         9.75395958562528   -0.57475039188430    6.99807148677374
H         9.98298838172624   -0.11688440678205    6.04735771644512
C        12.22517168524067    2.25187520779941    8.78395447048523
H        11.38037796573557    1.61543778222270    9.04142927167597
H        12.66954337298687    2.61997749605576    9.71463283504100
C        13.27070434173830    1.46239737023602    7.99070750784712
H        13.59769493891599    0.59902140740631    8.57178510847761
H        12.81056374839982    1.10288313404755    7.06743470051925
C        14.45585560972884    2.36737299378529    7.66024619162106
H        15.17843952748104    1.82868926699899    7.04455072070121
H        14.95736202523889    2.65632574773561    8.58714859487413
C        13.97370362425595    3.62054819487381    6.93188321603386
H        14.80504194032789    4.30532713823054    6.76344875987923
H        13.55236840067116    3.34769611532988    5.96304541659760
C        12.88810885356874    4.31956017534168    7.75092235595878
H        13.29250085223671    4.64786563789011    8.71323693552027
H        12.48574878162732    5.17513468796563    7.21099872639361

