61
CSD_code = EQOLIG | q = 0 | S = 0 | Stoichiometry = C25H33NSiTi | MND = 8
Ti        7.36869952530542    9.81812186493997    8.58068204941105
Si        5.15886033817746   10.76972702190231   10.22585058482795
N         6.82515873690164   11.12193476929458    9.86319956556893
C         6.08724355956139    8.41705292128453    7.11536613027357
C         7.47974167133787   12.30927364783802   10.14216757664007
C         5.19158928517533    9.26608098907993    9.06671017177505
C         7.68677345382516   13.23402503080589    9.10851008024149
H         7.32264225560364   12.97879093963457    8.11864444542112
C         8.11195745275287   10.43508446069465   12.50815344544579
H         8.55159447753210   10.07919425864644   11.58535965672599
C         7.15423616856503   12.22759949731083   13.77958276522105
H         6.82652161494608   13.25520184718717   13.84886555329998
C         5.25902496857261    9.42704576631228    7.65142301346656
C         7.70217554640854   11.76331297097281   12.58644378193828
C         5.99988905312438    8.13537155636300    9.39121322031423
C         6.55347899796072    7.61350701538790    8.19954883240793
C         8.49417279890675   13.90455448060768   11.65313464331374
H         8.81540363892146   14.16101506417789   12.65317234550267
C         7.88798254792234   12.67079469758963   11.44336016826018
C         8.71441695908316   14.78866797161307   10.61392203225196
H         9.19631373913248   15.73681518636856   10.79951681349687
C         9.18615791600435    9.05679218526476    9.21465636766962
H         9.67895760368316    8.50775946016314    8.39887890750787
H         9.07656590643857    8.35149262338896   10.04977604856524
H         9.88625869421711    9.84534231896397    9.53322105590101
C         7.97870869312159    9.59420903214357   13.59836742388975
H         8.31310135509910    8.56777312449349   13.53338122054319
C         7.01176163596609   11.38223143018474   14.86442113998370
H         6.57832394178899   11.75267288255039   15.78239015583027
C         4.64655333073896   10.38495885813710   12.03135277796618
H         4.57524421822241   11.30655227815092   12.59925026135997
H         5.34824661113191    9.74169448194598   12.54788280744524
H         3.67175293094374    9.90851433660264   12.05741175871707
C         8.21377754927142   10.70126383918642    6.91367718221066
H         8.62871871081849    9.93455167643859    6.24420922653717
H         9.03920896923341   11.38490353081750    7.16208196907138
H         7.47999403105846   11.27169530714043    6.32720539689361
C         7.42481014654338   10.06333064017393   14.77841332851798
H         7.31739724567572    9.40442373658690   15.62763931637917
C         7.32522942070987    6.33268711619199    8.04745646638189
H         6.64805613834517    5.50890590389667    7.80623678726315
H         7.85640924873917    6.07868921412329    8.96379530392818
H         8.05586831815259    6.40965641958824    7.24170176718462
C         4.04317621905582   12.24417034797300    9.71315657086543
H         4.11078281382640   13.01834688681436   10.47100812166073
H         3.00020877218636   11.95823690845595    9.63237567438985
H         4.34925409459295   12.68606646819811    8.77088347651248
C         6.27992924791074    8.10268796238828    5.65870097330846
H         5.51209597724679    7.40146754390194    5.32040623403519
H         7.25119652961011    7.64153300466173    5.48085795421726
H         6.21064728659396    9.00196024246169    5.04811300680153
C         8.30291083676500   14.44779559913328    9.33517165169299
H         8.45253538696836   15.13717714426677    8.51630921847583
C         6.13247407041615    7.53925511152906   10.76444564031392
H         5.15701657455900    7.51203953119680   11.24933890580921
H         6.80344986826533    8.12557667002307   11.39644260243654
H         6.51064486196679    6.51912964566765   10.70899815715778
C         4.47441876192870   10.43061648078406    6.85335225904585
H         3.53982378830107   10.65827141539818    7.36239176441088
H         4.23763047137880   10.03329552487678    5.86645605527348
H         5.02372503280538   11.36750115812478    6.71975818804029

