127
CSD_code = EQOLED | q = 0 | S = 0 | Stoichiometry = C46H66N8NiO6 | MND = 6
Ni       -1.14948352863360    5.69782539537363    0.00008223627023
O         0.32156396905351    4.62145064994521    1.56611763719605
O        -1.27096192931004    4.15329794563204   -1.08348775120041
O         0.41085074802145    6.29486263943486   -0.95764616727097
N         1.56233504678975    4.87861057945442    3.44870582426213
N         0.82632613842413    3.72786279878790    5.34504371330179
N         1.99999135539588    2.55070002686205    3.89302877626805
N         1.67913907315001    6.40923001136550    1.72637130233388
H         1.18080097112474    6.69565076492144    0.88457467801288
C         1.42006376622536    3.77146725275620    4.11534990599904
C         1.02713545196112    2.47692023761403    5.87626434500992
H         0.66677355284433    2.18301285867435    6.83789063818726
C         1.73991870080349    1.75848723509416    4.98928674185096
H         2.07988577442591    0.74989352396620    5.07483936295305
C        -0.00544027413816    4.79935970508054    5.89718300509075
C        -1.19486105063866    5.01832080937986    4.95678391255600
H        -0.85979387861056    5.26292017442232    3.95401184634725
H        -1.81353050587592    5.83394499682244    5.32039704570474
H        -1.80199674277692    4.11707998023037    4.90030487585042
C         0.82959511790447    6.07601568669765    6.02837269725389
H         1.68421046826153    5.90312010472493    6.67902204323036
H         0.22291605860972    6.87061398951768    6.45401766048344
H         1.19199650185332    6.38759541086271    5.05416958024983
C        -0.52180789823005    4.39832979057182    7.28021512020764
H        -1.15449899024374    3.51550661245796    7.22621759906054
H        -1.11838109154046    5.21397630307046    7.68015838044323
H         0.30049508747070    4.21285439969289    7.96770131856432
C         2.68246659328928    2.10144359915257    2.67271277119887
C         3.67656032955488    3.16924213539474    2.20411744061600
H         4.29890379456133    3.49945465522546    3.03342078209091
H         3.16619617878228    4.02968586821471    1.78780423123254
H         4.31927099498029    2.75224279776437    1.43300077150097
C         1.63060801496944    1.81904317365453    1.59654661865544
H         1.02174113812815    2.70178697503738    1.40753359683841
H         0.97441864238496    1.01090083146346    1.91447003154574
H         2.11734540798590    1.52919383836650    0.66926458732265
C         3.46672838904863    0.81863386749896    2.97012166868008
H         4.04844561050281    0.55269603537795    2.09148568829659
H         2.80412555247420   -0.01524909047958    3.18797984206476
H         4.15290236622711    0.96340672572039    3.80205742736821
C         1.16150423492997    5.24089980057173    2.23116852198484
C         2.50137896913285    7.36362953801702    2.28762931105500
C         3.34144068400988    7.12062972829521    3.37432297831758
H         3.35565857157266    6.14149248443340    3.82298533259324
C         4.14666731420352    8.12958422690483    3.86952529972473
H         4.78936123093756    7.92639085306234    4.71473140519142
C         4.14391980135694    9.38799263012389    3.29330368998665
H         4.77664939195857   10.17017147734614    3.68597999105979
C         3.32328385924133    9.63208360567355    2.20290297328768
H         3.31588540762389   10.60968609236764    1.74168483647758
C         2.51231466291413    8.63441232579605    1.70366146641327
H         1.86688160626791    8.82203669963610    0.85772804856900
C         0.98930810855084    5.71149455821878   -1.90835269157289
C         0.57104008708609    4.52551711782663   -2.51234471969115
H         1.13259696744546    4.13504212117769   -3.34580478804567
C        -0.55729183203608    3.83328032133238   -2.06365338142632
C        -0.98779939524519    2.60193143092478   -2.83860245473667
H        -1.56551139874334    1.94632556944269   -2.19301882444356
H        -0.12960654511214    2.07020010829863   -3.23868799608325
H        -1.62552177534985    2.91398291394444   -3.66492720770231
C         2.26080400446041    6.35587314235573   -2.43004320500700
H         2.33649219576080    7.37405913886462   -2.05815261056621
H         2.27069739601999    6.35809679586597   -3.51653583816917
H         3.12077796683094    5.78930474191538   -2.07710714227754
O        -2.62043354847599    6.77396815248931   -1.56618548108631
O        -1.02789867819552    7.24226157529630    1.08373902604909
O        -2.70979584974803    5.10078278244990    0.95786859071163
N        -3.86083161106347    6.51617288833680   -3.44896507866144
N        -3.12486117668444    7.66658422949474   -5.34549571982645
N        -4.29829949013858    8.84411416084240   -3.89359151814055
N        -3.97790965611925    4.98612444612273   -1.72613574000522
H        -3.47965032183910    4.69995956962215   -0.88420825437933
C        -3.71853972454720    7.62323548745328   -4.11575997815017
C        -3.32551995077786    8.91748006282322   -5.87688578870761
H        -2.96514784961484    9.21119623645204   -6.83856732060763
C        -4.03817405573441    9.63612593897968   -4.98998062474176
H        -4.37801444022172   10.64474878091079   -5.07568040285248
C        -2.29323600007335    6.59492512711789   -5.89753296819352
C        -1.10366186426039    6.37616152599490   -4.95728548201518
H        -1.43857944356534    6.13143951542170   -3.95448475076057
H        -0.48484858092027    5.56068672164260   -5.32101744901147
H        -0.49669911989808    7.27753602540648   -4.90081218320923
C        -3.12831236132912    5.31825787408637   -6.02831345907857
H        -3.98304304466099    5.49102776468800   -6.67885717078570
H        -2.52170253478757    4.52357039797733   -6.45391717601534
H        -3.49055048830945    5.00687467211851   -5.05398412692120
C        -1.77705578408717    6.99564636297733   -7.28072380898654
H        -1.14426216928470    7.87841479270373   -7.22702564815706
H        -1.18064604831572    6.17986328963703   -7.68062701639723
H        -2.59946786603906    7.18106566457103   -7.96808954681790
C        -4.98090294571728    9.29361796516329   -2.67343063261467
C        -5.97502900970088    8.22589315700343   -2.20473368062467
H        -6.59712996901117    7.89534358612912   -3.03408637148054
H        -5.46469778611826    7.36563812763430   -1.78798830657084
H        -6.61797943393300    8.64310342729755   -1.43392892348361
C        -3.92918701216531    9.57628359298574   -1.59719404095562
H        -3.32019825192129    8.69365194634385   -1.40804666667992
H        -3.27310473112335   10.38451787678509   -1.91510253749391
H        -4.41606979542517    9.86611273530647   -0.66998230645930
C        -5.76518423521727   10.57634020962990   -2.97116963546244
H        -6.34675890092497   10.84257570614670   -2.09253103654447
H        -5.10260540914678   11.41014332077066   -3.18938790401510
H        -6.45147613315728   10.43130659156223   -3.80296151424835
C        -3.46025191273967    6.15432020986223   -2.23120416660290
C        -4.80020682164117    4.03158473539942   -2.28706446376618
C        -5.64037077974238    4.27428215063663   -3.37374674259497
H        -5.65455678539004    5.25327232151434   -3.82273835138065
C        -6.44573392906781    3.26521222317208   -3.86849973111608
H        -7.08854351421139    3.46815250993825   -4.71368213465693
C        -6.44296481154588    2.00698450963173   -3.29187487106401
H        -7.07580272555783    1.22471633469156   -3.68420116819783
C        -5.62217074446947    1.76318076060140   -2.20152725673801
H        -5.61473800980030    0.78571836065558   -1.74001033378626
C        -4.81110097620079    2.76097947191587   -1.70270694985837
H        -4.16555682874797    2.57360875214699   -0.85680217367839
C        -3.28813186612165    5.68405712242011    1.90870168610311
C        -2.86968695817845    6.86989977984176    2.51284275502635
H        -3.43108264310045    7.26026920786085    3.34646193801125
C        -1.74136517714789    7.56212823464780    2.06410510270024
C        -1.31079606748266    8.79346659113275    2.83902625627311
H        -0.73334600077669    9.44921307111821    2.19334718077046
H        -2.16891037289979    9.32506320474097    3.23946164650043
H        -0.67277992936915    8.48136096747254    3.66509807001674
C        -4.55945747316341    5.03952270878968    2.43061804172556
H        -4.63484474382483    4.02117311292061    2.05918986409203
H        -4.56951160259051    5.03780234206544    3.51708314599318
H        -5.41951047297621    5.60567031032573    2.07730050905853

