93
CSD_code = EQOQUW | q = 0 | S = 0 | Stoichiometry = C44H43NO2P2Ru | MND = 7
Ru        8.70654806950825    3.93377068929957    3.79784459507486
O        10.05978711041968    2.70643040925408    4.65231067301785
O         9.41941914825328    3.42263706102081    5.60758921819839
N        10.43584601059787    5.28823917629568    3.49249578942796
C        10.94217225040276    4.36803001359881    2.45175583828844
H        11.55202911620994    3.57916353517688    2.90510970094977
C         9.64439280747860    3.80151832124865    1.92767429131766
H         9.67670807213173    2.89911190953796    1.31988860671561
C         8.59096541002257    4.73589583792820    1.80793442865849
H         7.78794503226344    4.49152589949438    1.11125765220484
C         8.92274425330911    6.22051981420644    1.83269916510743
H         8.06508158726655    6.78525405398425    2.21157900104616
H         9.09939898532032    6.56576721475676    0.80746800769176
C        10.16512404496352    6.49149998184956    2.69932823823422
H        10.00790501680080    7.35092069002155    3.35640601329022
C        11.41360059774565    6.65791347287676    1.82001544147691
H        12.22298133425576    7.11395346409407    2.39196214820415
H        11.21879256614489    7.29227192757805    0.95678603444206
C        11.74764755036852    5.21357781990939    1.43820256007969
H        12.81602070537086    5.00972903542499    1.50583615689117
H        11.42363035327195    4.98262745231526    0.42325687449894
C        11.37047229949715    5.50840777887249    4.58532253898199
H        12.37269159716726    5.76709139376419    4.22792515082124
H        11.43537190497552    4.59463108187012    5.17807392435389
H        11.00143612349054    6.30809195565593    5.22879487039488
P         7.27928244461038    2.15055337630944    3.59132600786886
C         5.74534274025505    2.57601143528399    2.70678469613937
C         5.71283615727453    2.55506262638679    1.31460650869910
H         6.57251816258752    2.18951211418752    0.76873379574966
C         4.59063593434425    2.99162139716733    0.63391009686405
H         4.57266490225319    2.96432553588736   -0.44648689623780
C         3.49192045985754    3.46439998032279    1.33353137381169
H         2.61406112425528    3.80004652428763    0.80094280459905
C         3.52665021443323    3.51378429948853    2.71746340552417
H         2.67846102611845    3.89543024684267    3.26731531411664
C         4.64870867339445    3.08114495800590    3.40029981195835
H         4.68090650029009    3.13519820137220    4.47874795074578
C         7.91041967598993    0.72116825222042    2.63373463027426
C         9.27757979443953    0.47351869365028    2.59873686133610
H         9.94724317294253    1.15666776226758    3.10349041247566
C         9.76662376657806   -0.64517914824296    1.94672402317568
H        10.83084572743081   -0.83040627784678    1.92076390238213
C         8.89490244719651   -1.52872306846037    1.33336586131985
H         9.27609367571969   -2.40030693319470    0.82108847608896
C         7.52896058261151   -1.30086623331936    1.38986523780952
H         6.84519266822354   -1.99827496288762    0.92719093726275
C         7.03559854302565   -0.18774147375799    2.04400911244180
H         5.96867241437965   -0.02206996967722    2.09719796721435
C         6.72205966582624    1.11666664682356    4.99811870623792
C         7.71151590891387    0.77399442544111    5.91709289165238
H         8.70735264543204    1.17479134728661    5.79330158176559
C         7.42083222505562   -0.06274517387134    6.97738147905971
H         8.19187501581479   -0.31920038454740    7.68964622681253
C         6.14114255494084   -0.57306840642852    7.12593363637428
H         5.90819968002325   -1.22286846112016    7.95746905491963
C         5.16245119621181   -0.25763337816987    6.19923369110978
H         4.16782787276933   -0.66792641287125    6.30318055093538
C         5.44928652705612    0.57533396375806    5.13175478666475
H         4.67857843203762    0.79546602371921    4.40770149971840
P         7.14888953446977    5.46419475133184    4.67142763373494
C         8.07488958873918    6.72406896239141    5.63007255362585
C         8.33230361534030    7.99099561012765    5.10944704288123
H         7.89896254704377    8.28671035729039    4.16271491148852
C         9.13068818606179    8.88476114771030    5.80115831877165
H         9.31760530753411    9.86620564895379    5.38811393208342
C         9.69203031087518    8.52321065061265    7.01468104622018
H        10.31598265889600    9.22220237795767    7.55221772520925
C         9.45546008491703    7.25884231661685    7.52977785153706
H         9.90031938049059    6.96725129757432    8.46996263592610
C         8.65827077220956    6.36211377120158    6.84144862668048
H         8.50045883829116    5.36883672452944    7.23351167566027
C         6.07320176429045    4.76112945235613    5.98820408957315
C         6.61103783515322    3.74113825076783    6.77110124946756
H         7.62237595673941    3.40312162492900    6.58280597987315
C         5.85747508392504    3.14367322766428    7.76532105612415
H         6.29006195759933    2.35345517730577    8.36088009716418
C         4.54974343822932    3.54230212075404    7.98165261588144
H         3.95580099714657    3.06949461934701    8.75012471845529
C         4.00234682339405    4.54370236346570    7.19768155674202
H         2.97829120467609    4.85313302354068    7.35212712681258
C         4.75451259628192    5.15137062720313    6.20747288589272
H         4.29686979003543    5.91526312070891    5.59729863140445
C         5.93013399581566    6.52054175672274    3.80327009245787
C         5.49501876900048    6.14664438434247    2.53855995908842
H         5.91157908376686    5.26161224022268    2.08227747595103
C         4.54106412258122    6.89485588607717    1.87127583539277
H         4.21291190418552    6.59043392520076    0.88829705567729
C         4.01032439923228    8.02725958131990    2.46401586407816
H         3.26787684771850    8.61575033249662    1.94517690959093
C         4.43282862884374    8.40462987489362    3.72928998870110
H         4.01614873620852    9.28442676930276    4.19849358262823
C         5.38310336887233    7.65611097196871    4.39878219803593
H         5.70227739153705    7.95238953688958    5.38868376103355

