38
CSD_code = EQOVOV | q = 1 | S = 0 | Stoichiometry = C9H23ClN3OZn(1+) | MND = 4
Zn        5.61779549222747    3.19509041203057    1.82423538963841
C         5.92838269799763    1.90392213871420    4.48947164474715
C         6.27894250917991    0.63253122007621    3.71370671726852
C         7.23670993893134    0.83607611722810    2.54225645964772
C         3.63741854486224    2.31668787501719    3.88453022264242
C         2.57177021966968    3.10859144032547    3.12599004852802
C         2.57938619144874    2.91024227541971    1.61285244184863
C         5.11920817440572    4.18156656066755    4.44914718068440
C         4.63655060811063    4.30779059583260    5.89649647360303
C         5.13735247541342    5.65111770482962    6.45539914264093
N         5.01420222034030    2.84727647318849    3.80704178990026
N         6.52545743841972    1.32969312364063    1.34445611752230
N         3.70420211930556    3.61730362433311    0.97075020446358
O         6.53903958041703    5.71806505447280    6.47702394806724
H         5.48564944880067    1.60106357752052    5.44551438162424
H         6.85702225852793    2.43885397582947    4.69928682387887
H         6.87891345447092    5.23711884489678    7.23922160939394
H         5.37978223525913    0.12439595032549    3.36112167233396
H         6.76417058340362   -0.03825997354176    4.42438345092934
H         7.21578274570310    1.49291560332014    0.61158129111525
H         5.91922837994316    0.58534336184279    1.00180133959759
H         8.00125072866380    1.57019013881328    2.80729570361187
H         7.73551689799282   -0.11300457598805    2.31678062407494
H         3.67229914983622    3.44081237888777   -0.03255196410240
H         3.55394211341563    4.62223071272096    1.07077687500897
H         3.64810874133244    1.30125448320785    3.48479010296665
H         3.34022513019410    2.25271714573221    4.93717256543231
H         2.63747064028533    4.17197092105412    3.35525174072522
H         1.60371967937507    2.76256077708505    3.49209124056487
H         2.66950060485085    1.84681354919995    1.37976855196850
H         1.62692700306777    3.26746507610053    1.20564204119465
H         4.57452853746273    4.90460898201915    3.83807651035872
H         6.17093796503715    4.47961431851944    4.42461865294220
H         3.54889275197614    4.28949258283599    5.96393723899159
H         5.04027022352883    3.50554347010634    6.51597378796327
H         4.81080214470273    6.46507721170707    5.80302475768414
H         4.71214192435901    5.81652234560364    7.45142279499439
Cl        7.01939844708171    4.72344452642489    1.49076042554451

