86
CSD_code = EQOWUE | q = 0 | S = 0 | Stoichiometry = C42H35CuIO3P3Si | MND = 4
Cu        6.82001138553226    4.52021038256624   13.35325903082212
I         5.29115897973608    3.03583091969232   14.59651742566059
P         8.48951843629596    5.90084753007873   14.21593113973097
P         8.35883384198451    3.99221186307026   11.69449603682807
P         6.27885147343164    6.36262676990493   12.01471872274920
Si        9.06749793230015    6.76766644346288   11.54484732773054
O         9.49015999071099    6.60792239677914   13.12363855029912
O         9.05308874463837    5.25489614704434   10.90686832135835
O         7.52092231947450    7.31297765733893   11.51573659008190
C         7.52395637319868    7.36818272443367   14.72860212761885
C         8.03848849158886    8.65461173020984   14.62442677316426
H         9.05374960018862    8.79842633634586   14.28080224169252
C         7.24555627574365    9.73967338953799   14.94934561737384
H         7.64455487001239   10.74026467741389   14.86233117601709
C         5.94404651052992    9.54762194507120   15.38555415832828
H         5.32710548100505   10.39903298047484   15.63229143076075
C         5.43225803708663    8.26638025631233   15.50250003829963
H         4.41819369227463    8.11299692763115   15.83983731181651
C         6.21777066147384    7.17839702048791   15.16799170839198
H         5.81670707000566    6.17579623286853   15.24989844855978
C         9.66412659417282    5.75738538179258   15.59419055374312
C         9.13473722225859    5.28340477996480   16.79062610312757
H         8.06842109761403    5.11009183053179   16.86590382709036
C         9.96691418916660    5.03891832626609   17.86502553488411
H         9.55610029700786    4.67693368032127   18.79580463367943
C        11.33195628494802    5.24933763958407   17.74062960427202
H        11.98528543988120    5.05234819692410   18.57784374236933
C        11.86068299197902    5.70436412648961   16.54414645129923
H        12.92558471361454    5.86136802259373   16.44900073373846
C        11.03153141365857    5.95402115270196   15.46545368678238
H        11.43661129165896    6.30129898281514   14.52631734007854
C         9.80150841319839    3.44070506793376   12.67450308452369
C         9.58327360188663    2.87793837978193   13.92711688964825
H         8.57082242577411    2.71204276276610   14.27480359426750
C        10.65614316452892    2.52377835524973   14.72535375299139
H        10.48155318268866    2.09006643909991   15.69842702899733
C        11.94845451755607    2.74461207199465   14.28042144281047
H        12.78666742265416    2.48467673227570   14.90967090789953
C        12.16904725308434    3.29911019059691   13.02912288462561
H        13.17911685534148    3.46306344299814   12.68133338580721
C        11.10004138540049    3.64258076343404   12.22301993112870
H        11.26096254579529    4.07299552085042   11.24395421400557
C         8.37701429683860    2.78930606021642   10.33433432145169
C         8.64174209206376    3.12158724789017    9.01351884888494
H         8.94384685455798    4.12821831415373    8.76397831416808
C         8.51494008286309    2.15680786055953    8.03019655481415
H         8.72459624335427    2.41055998787959    7.00094663611042
C         8.11519680487610    0.87230109872768    8.35932255581711
H         8.01450970262638    0.12489606463571    7.58611189340238
C         7.83657332300503    0.54406237557498    9.67763475063210
H         7.51776181651531   -0.45572758229728    9.93252160455028
C         7.95788325765524    1.50368418749373   10.66300201817040
H         7.72990392920799    1.26953804686136   11.69556581404552
C         5.89579444007087    5.53118635198788   10.42973538810048
C         5.36579595971429    4.24559724330492   10.46777390939953
H         5.12834102637627    3.78823285839402   11.42041304357220
C         5.13923917891892    3.55167981523601    9.29298772425422
H         4.73251950380598    2.55224234465596    9.32970443218963
C         5.45453544480230    4.13437300551426    8.07718213877935
H         5.29521004565176    3.58700917559620    7.15996815950777
C         5.97772979069770    5.41712914353215    8.03538471208503
H         6.21883004681406    5.87235628645758    7.08537884319393
C         6.19545056080755    6.11855474771748    9.20673115436331
H         6.60760210813240    7.11777993024060    9.18005022757148
C         4.98381453694436    7.63449956734613   12.07260301341326
C         5.24180708486031    8.99667294502157   12.01718123603006
H         6.24909400219472    9.34440597609624   11.84089772481738
C         4.20495662511941    9.89541482136726   12.19167300980591
H         4.40190775748663   10.95683751651087   12.14367198864055
C         2.91996354356175    9.43955181809165   12.43430167098330
H         2.11536716037055   10.14635001963825   12.57415130873114
C         2.66456879772562    8.07840996225810   12.50649424988316
H         1.66398425441996    7.72381168154992   12.70446582445568
C         3.69618337154986    7.17677959728448   12.33511985241950
H         3.51691345893433    6.11099199721297   12.40289508616123
C        10.21945681099342    7.90141630353719   10.63465527425991
C         9.74321622059368    9.03982064123214    9.99846068359037
H         8.68822095260667    9.26238338482634   10.03798074368055
C        10.60603187015009    9.88298741346862    9.32223092738018
H        10.22327249579682   10.76585490365515    8.83184024243869
C        11.95951048176596    9.59427818975069    9.27464371369116
H        12.63496271820535   10.25078549234407    8.74633590605241
C        12.44547475673414    8.46193666117030    9.90721890743607
H        13.50066068452039    8.23418692176929    9.87304741229390
C        11.57908996089777    7.62264115488303   10.58316456808806
H        11.95635347411788    6.74179228894804   11.07976010562583

