93
CSD_code = EQOZAM | q = 0 | S = 0 | Stoichiometry = C38H48N6Ru | MND = 6
Ru        3.71045001082010    1.83775503992630    0.66799642168497
N         6.54343334465312    2.73081388769434   -0.32036945929097
N         2.93162169664185    0.31020441503396   -1.95135993894764
N         2.77399590367078    3.41172753052866   -0.09200587367608
N         1.82626712460437    1.46357288106608    1.28297693031199
N         4.24541974272021    2.64103477236909    2.44060365891952
N         4.59133697321586    0.27543269779203    1.50880978742057
C         5.49522311600863    2.34786032970716   -0.03364434944773
C         3.29260141238546    0.90329231609593   -1.03183532510668
C         3.32862069403668    4.40552311709103   -0.79811387740706
H         4.40436249649796    4.35718656240059   -0.91890834970220
C         2.60886681957275    5.43404388484111   -1.36493236295248
H         3.14484854500609    6.18358645720683   -1.92076181385532
C         1.21900182706648    5.48314697020151   -1.22550141682806
C         0.64754241504630    4.45998857471600   -0.48305684533556
H        -0.41978900610438    4.43350212564809   -0.33719019429354
C         1.42374140433507    3.44732688238831    0.07347438431582
C         0.88961680029318    2.35150916485754    0.86877593606897
C        -0.45219658452919    2.20269613766088    1.20986771165360
H        -1.16238545114413    2.93125713081829    0.85554855557933
C        -0.88363420713285    1.13700253684073    1.98713244687507
C         0.10397319300208    0.24054710419681    2.40394703812520
H        -0.13219887577884   -0.61737703901373    3.00977524275852
C         1.41558593594744    0.44053363081387    2.03236336852542
H         2.17728942072833   -0.26386016731389    2.34848021460575
C         4.00997438955892    3.88331552866593    2.86199346769168
H         3.45039470612516    4.52383116007478    2.18895538272122
C         4.44212754461557    4.37616080772914    4.07405656644775
H         4.20658054527451    5.39572751807400    4.32672525889694
C         5.17670454862593    3.55886963510926    4.93728387437355
C         5.41345566780140    2.26374605948154    4.49852331608050
H         5.97386711661893    1.58156025086754    5.11599483462882
C         4.94789674131612    1.82343815291190    3.26223961249990
C         5.14492425057898    0.48119333450219    2.73481642901254
C         5.83080559180842   -0.52888364781675    3.40370581966371
H         6.25886545694897   -0.31248900328180    4.36865880892965
C         5.97768968630202   -1.79214005818571    2.84953599091745
C         5.39216487257975   -1.98041142889837    1.59430462758517
H         5.45258007491636   -2.92472559322445    1.08184561797611
C         4.72666925685159   -0.94570397310132    0.97524040688981
H         4.28295569794061   -1.08635297392404   -0.00325777418161
C         0.34843202535295    6.56444653330860   -1.83688054471920
C        -0.65209516690786    5.90853676450245   -2.79893168345298
H        -1.30894096849698    5.21590897464860   -2.27969556120844
H        -0.12250261452783    5.35863343744432   -3.57358381074880
H        -1.26710720762119    6.66979702269222   -3.27364569682275
C         1.16679158088606    7.59372936861694   -2.61959409808600
H         1.70191456240298    7.12283350388327   -3.44046843178267
H         1.87907561969674    8.10209569550084   -1.97378182587432
H         0.49955162176132    8.34349508295068   -3.03936990023318
C        -0.40580501448487    7.29508147344583   -0.71642950353268
H        -1.04888124847718    6.61722559959537   -0.16135716655884
H        -1.02634822548664    8.08278188513179   -1.13747695229266
H         0.29773829850772    7.74650333977418   -0.01973047656456
C        -2.35241260292752    0.98939966444545    2.33603899080931
C        -3.15843447754105    0.85463107257477    1.03642907150120
H        -4.21384399588577    0.72319588630065    1.26459377579897
H        -2.81699072944610   -0.00858638529364    0.46906733911766
H        -3.05308834559611    1.73610776559847    0.40971175642426
C        -2.81177785214134    2.23434061185054    3.10886572580364
H        -3.86010236909177    2.13686963801854    3.38174458532045
H        -2.69916611694713    3.13672187031337    2.51378806630698
H        -2.22818380322434    2.35080270504990    4.02019577569029
C        -2.62300273468174   -0.24327417964436    3.20208222071578
H        -3.68611418947677   -0.30299595495499    3.42502682431782
H        -2.08538004095216   -0.18547206393586    4.14611043929215
H        -2.33766065490487   -1.15543524253727    2.68315396618051
C         5.70781175956718    4.02001121940132    6.28120960211520
C         5.35082138017256    5.47847507424899    6.57790760822341
H         5.77667630152694    6.14423610902226    5.83089337661165
H         5.75543197784755    5.75999132750241    7.54766652094539
H         4.27275091782558    5.62040059181688    6.61082734554694
C         5.10612986207332    3.13934388528543    7.38595689060012
H         5.37748646894693    2.09523841606071    7.25460375375237
H         4.02030180294977    3.21355323349300    7.37960323201439
H         5.46757651114561    3.46406668510981    8.35899916206647
C         7.23719149809973    3.88652293745279    6.28206736919949
H         7.66746460340448    4.47953445190262    5.47796567406069
H         7.54717650507100    2.85408456955529    6.14564776614363
H         7.64157075570417    4.24085761178918    7.22760341955534
C         6.73844325242052   -2.87251872371267    3.59458417948727
C         6.03999115097135   -3.14198385168539    4.93549153990961
H         6.56676868873899   -3.92270969222260    5.47946390546513
H         5.01579478798367   -3.46985181639436    4.76854057698916
H         6.01639035797810   -2.25147676037384    5.55825840013950
C         8.17427001291303   -2.38859422564982    3.84150156634263
H         8.74756628870869   -3.16378456245363    4.34507715897668
H         8.19332528183101   -1.49582118737293    4.46074486472964
H         8.66032670986301   -2.15736375085202    2.89631974339001
C         6.79986170040923   -4.18431659264516    2.80889225185506
H         7.35549045104827   -4.92381564199415    3.38157936047880
H         7.30750337159126   -4.04491723579160    1.85765004325044
H         5.80336135198332   -4.58027885329309    2.62728767262964

