103
CSD_code = EQUFON | q = 0 | S = 0 | Stoichiometry = C57H37N5O3Zn | MND = 5
Zn        1.60288773489888    3.99896814481193    7.84711945816839
N        -0.13007887234975    5.04593444957611    8.01162350579969
N         2.38283431746709    5.03912493543143    9.41489913443091
N         3.18972686220958    2.71787469169545    7.95319690272174
N         0.65458014495330    2.69276800215209    6.59312004805428
N         2.53730002980681    5.21790970754849    6.27779968624669
O         9.48598508179681    3.97913441024535   12.31873586047343
H         9.61146863853464    3.18180320345908   12.84718809624380
O         1.56752281791359   -1.51514191960936    6.96372293050383
H         1.36807005380839   -0.64665032266974    7.34148703427560
O        -0.53879921601308    6.46513385865385   12.25183735645451
H        -0.93143565085721    6.51408505041677   13.13169358174104
C        -0.32103940569008    6.14936447143852    8.77671647139352
C        -1.60400809684404    6.73179447451241    8.48915624609740
H        -1.99629279788480    7.61776120468599    8.95048819122895
C        -2.18034863576964    5.95186474351013    7.54616537544087
H        -3.13673345589935    6.07865555211343    7.07685073704259
C        -1.25123884402278    4.88899987739544    7.26468372030530
C        -1.48558248329693    3.86241197785378    6.34964480400225
C        -2.78463844390056    3.85401588248637    5.64192466488779
C        -2.84024918876423    4.03804387367158    4.26382681592707
H        -1.92303185852555    4.19653242501655    3.71448266183042
C        -4.05553390220018    4.02997612803384    3.60351550716058
H        -4.08660775047434    4.17787564174353    2.53358488796552
C        -5.23013661505164    3.83274308671031    4.30997950826649
H        -6.17856145010361    3.82383170095218    3.79324705190536
C        -5.18367425202373    3.64648692416882    5.68154364179526
H        -6.09714361278711    3.48945252270926    6.23674435760033
C        -3.96994792870218    3.65957689900827    6.34439708222173
H        -3.93055311297850    3.50868746153978    7.41348324024183
C        -0.58532024275001    2.83699541470192    6.05918227401116
C        -0.84965892517923    1.76323916800653    5.13920413283351
H        -1.76333360629234    1.62474760689381    4.59482808422899
C         0.25881192384540    0.98693801481059    5.11544731897020
H         0.43526963274098    0.09992087881680    4.53773514612893
C         1.19507513757421    1.57989538131509    6.03228848628549
C         2.47927178241957    1.08712905944984    6.26757236096563
C         2.89118642372936   -0.13000201707624    5.51912867078437
C         3.76897347513827   -0.03533629802375    4.41166363398302
C         4.28082923107677    1.20341197522789    3.96890454262986
H         4.00143795698745    2.10196058960651    4.49996939732569
C         5.12306696302457    1.26866161363577    2.89475067790715
H         5.51196588725385    2.22255789512962    2.56761522303047
C         5.49415942917644    0.10289069164096    2.20795566877326
H         6.16088122126085    0.17349390428452    1.36095585686713
C         5.01356177492613   -1.11124227096549    2.61144595621716
H         5.29364513532556   -2.01494694358000    2.08870262095404
C         4.14359300348285   -1.21473141498502    3.71565520256376
C         3.63371983186666   -2.45654791863129    4.15006050513962
H         3.92324883722547   -3.35239373553124    3.62036988693346
C         2.78966089236869   -2.53137011399753    5.21802721578791
H         2.39132899890552   -3.47224370570750    5.56387092375758
C         2.40945435625115   -1.36410739055090    5.90883868621186
C         3.39855097270343    1.63749370263120    7.16009878050427
C         4.71670912768297    1.10854761338913    7.38263779954803
H         5.13347674811443    0.25714837352967    6.87994129448885
C         5.29297371487199    1.89332728963264    8.32196379010311
H         6.28172562457210    1.81562758688896    8.73026859436496
C         4.32134003758807    2.89173953542234    8.68268688306518
C         4.53433076486705    3.88677394557431    9.63721719541486
C         5.83291921236441    3.89739008636337   10.34393443203157
C         6.20740873407296    2.83488651840977   11.15897784918301
H         5.53648400360009    1.99734481111490   11.28025057040404
C         7.41805090855271    2.84699405778464   11.82573490060394
H         7.69475486873146    2.01631370858534   12.46240796935387
C         8.28311462254828    3.92516543858886   11.68323891774623
C         7.91888746001919    4.99157607466731   10.86676989481011
H         8.60054760300504    5.82081937735212   10.76240352162120
C         6.70573178330364    4.97445718580392   10.20998091511066
H         6.42943347458780    5.80209231589487    9.57304890043049
C         3.60554156884439    4.87165561889130    9.97807474181553
C         3.81428325982622    5.86504757110343   10.99821136013531
H         4.68849348855073    5.94511937746644   11.61466236119505
C         2.70461100960896    6.63922120827551   11.02011829476613
H         2.49745928997207    7.48582523873751   11.64599066512985
C         1.81308344418292    6.10939507792086   10.02490451407615
C         0.56703032442203    6.65292003865405    9.72332722249208
C         0.14907252069033    7.86011930202416   10.47963354364664
C        -0.39450650100629    7.71819897195628   11.74113015638661
C        -0.79287903244679    8.85095866480076   12.47453096541115
H        -1.21800814613644    8.71198533953375   13.46066402109932
C        -0.64686830877936   10.10443435182260   11.95280595926076
H        -0.95347700142463   10.97013485147570   12.52164182290338
C        -0.09722585661567   10.29024998461123   10.66891878110364
C         0.06477660130952   11.57235777534456   10.10409012428745
H        -0.24431958611455   12.43335502319168   10.67983358136076
C         0.59958049834652   11.72489264185008    8.85633133848233
H         0.71992118889124   12.70991902539082    8.42976414292758
C         0.85340447368658    9.34300641374951    8.63572732413730
H         1.15174053754670    8.47535711789706    8.06529529753660
C         0.30400698018204    9.15070943432255    9.92244047750874
C         0.99593556336338   10.59876765523211    8.11745662131237
H         1.41466545138721   10.73447709043833    7.13058964412861
C         2.65437488311738    4.74694014792001    5.04364842385127
H         2.14161584989534    3.81819461140993    4.84134131294453
C         3.38186433442810    5.38860326967841    4.05473350183045
H         3.45213932084173    4.95849195218065    3.06784564362162
C         4.01106215795359    6.58396945308635    4.36309196959712
H         4.58797224386635    7.11377891590967    3.61939901730360
C         3.88085840710446    7.08369837909770    5.64902891449659
H         4.34827789297762    8.01260944369559    5.93620581935762
C         3.13830422904141    6.36328006888844    6.57014705645587
H         3.02080002370761    6.71378891807022    7.58512213793223

