71
CSD_code = EQUJIJ | q = 0 | S = 0 | Stoichiometry = C32H32N2NiO2S2 | MND = 6
Ni       12.87954708338776    2.90825640523495    4.40438395294727
S        13.71523945025391    4.41752570879472    2.90241229428791
S        14.48247133162760    3.87298547227671    6.22147008015645
O        12.24255111809809    1.71161699916862    5.67005215876915
O        11.84404205634918    2.08301614017557    3.03910186909419
N        11.54767681765895    4.57614981051329    5.28296162945828
N        14.81265974242784    1.63179070639979    4.04516959250072
C        13.37512002923325    3.47008515915947    7.55589083924720
C        13.66967936901783    2.51319835812922    8.51241974293699
H        14.56062331750355    1.90995564057222    8.43626656786195
C        12.81209074787894    2.30567329627538    9.57704842517945
H        13.04687948891772    1.54598237835140   10.30711312958560
C        11.67086447095678    3.07448273207594    9.70984798238821
H        11.00797132624932    2.92769429662697   10.54789614485707
C        11.37067172692555    4.01859868091547    8.74595600325564
H        10.46733987640891    4.60356636505594    8.83524496466491
C        12.19400808048595    4.21584361771414    7.64796127272317
C        11.81020913262028    5.20935516879534    6.58168306623574
H        10.91977798578709    5.76891953794193    6.91146910830619
H        12.63442445647535    5.92096544073605    6.46003342022798
C        11.57410456515322    5.56873838007150    4.20622041280676
H        11.08598663675916    6.50675891679375    4.52141338153444
H        11.01836694581820    5.16719249652805    3.35351293351485
C        12.99110542835324    5.88718760137872    3.73744091541934
H        13.63978303408980    6.14034149191885    4.57505531791480
H        12.96477687053779    6.70771589747480    3.01858348187818
C        15.45694337570719    4.61657563277648    3.22529999122037
C        15.99006040852049    5.89424183358580    3.34906814311820
H        15.35142440016334    6.75894752291943    3.26787184746881
C        17.34414537418183    6.08214494215153    3.55315371789649
H        17.73543018520099    7.08309155950703    3.65256244919339
C        18.18967731093501    4.98936730034667    3.60874752507829
H        19.24993989089836    5.12358881451900    3.75856699287079
C        17.66514520695189    3.71881677837104    3.45924201451801
H        18.32745173231930    2.86473527563151    3.49166650917405
C        16.30395572746221    3.50247784211258    3.27181982009615
C        15.81679994357924    2.09134311618393    3.08190159461243
H        15.35031207648075    2.02936348824926    2.09122849754165
H        16.68553621806782    1.41051896760871    3.09047637863066
C        15.37554244281977    1.35185545535520    5.36425115722543
H        16.26356327843857    0.69731918750024    5.28476009361157
H        14.60278952296614    0.82785624278308    5.93406943902504
C        15.78220477881271    2.59766857721320    6.14630297509108
H        16.61404518830279    3.11666609235713    5.67059839884660
H        16.07796816360430    2.33469809038077    7.16076429040696
C        10.25031629480144    3.87246653534302    5.28783600079904
H        10.11931780756860    3.43974010806137    4.28690478926571
H         9.43702576593764    4.59322157571877    5.47641389503525
C        10.14904409785752    2.74944527553993    6.28581676345694
C        11.12642202685726    1.72781354259817    6.33830152541331
C        10.90513742960681    0.66802053981472    7.24178966717310
H        11.65038585419500   -0.11277359677140    7.28318010072283
C         9.79765156938909    0.62738274526924    8.05607777264581
H         9.67108858003642   -0.19939990526322    8.74090319228763
C         8.84877517109085    1.63406057964079    7.99631628382294
H         7.97419469084721    1.60597287501325    8.62851234311028
C         9.03489796063718    2.67403909907592    7.10476795382060
H         8.28967806767301    3.45715280383381    7.04367866283229
C        14.17602654915704    0.39825669019681    3.52358799393473
H        14.92733887233144   -0.40593632100933    3.45481089196037
H        13.40260200777138    0.10963625701987    4.24357677938535
C        13.52855114804019    0.59471713404807    2.17888582458199
C        12.40553295425678    1.45306571241144    2.05025777334924
C        11.84724208730326    1.59797803589533    0.76153350570348
H        10.98592431759202    2.24201624663997    0.66182189499559
C        12.34863042318779    0.91823305984732   -0.32422721607611
H        11.88551495762030    1.04380088443443   -1.29299827314667
C        13.44794421744464    0.08524775379891   -0.18476242035729
H        13.85045467085016   -0.44194085975392   -1.03645131209989
C        14.02474488208812   -0.06086858561558    1.06450787818708
H        14.88285128146903   -0.71132160441943    1.18029720581857

