39
CSD_code = EQUJUW | q = 1 | S = 0 | Stoichiometry = C11H20N4O3Re(1+) | MND = 6
Re        4.20958067187378    5.03487374623307    7.09139929895754
O         6.58494296874167    3.64058150973562    5.68886111669031
O         2.30931073212978    2.68686451423027    6.43062347708240
O         3.32650117780364    6.32186362957317    4.42634513714046
N         2.55768305513636    6.25194706368930    8.22355224692495
N         5.32795702676441    6.86164022157944    7.75797414550166
H         5.61181114598956    7.39543696231127    6.93341573992680
N         5.19040913276446    4.43939020779092    9.04581575052134
N         5.64436105220697    3.09858665233156   10.89697975944425
H         6.39166898202166    3.66769739530514   11.25471676229213
H         5.49986295808253    2.21286253888002   11.34999291316335
C         5.69264116104227    4.14469947396040    6.18898218744600
C         3.04289818672778    3.52686382370924    6.68626319388272
C         3.61894166640949    5.82745520061338    5.41254485520672
C         3.03740294352273    7.64816514756946    8.17774019054386
H         2.42353143399815    8.29072748417388    8.82298878655309
H         2.93840361743586    8.00874348959081    7.14873470074975
C         4.50225200707309    7.75010940121539    8.59848376969286
H         4.83167151966659    8.79229389889753    8.52164693713252
H         4.60568155044683    7.45157389553623    9.64344385163034
C         6.55186247310121    6.41680854177286    8.43498530744075
H         7.08500013134500    7.25390717184744    8.90371060820583
H         7.20738326355583    5.97169111372737    7.68100532018156
C         6.22728515661484    5.36233145059041    9.50090735302610
H         7.15903785842757    4.82308568995464    9.71502697908480
H         5.90692362845659    5.85140719666870   10.43249159588223
C         1.24469994007475    6.20078153949784    7.55737417335572
H         0.86298592232127    5.18131508931756    7.56877002410008
H         1.32818972170590    6.51996636379577    6.52013040837290
H         0.52591312712106    6.85047260112075    8.06725972030355
C         2.34245992116682    5.84297099698229    9.61676255931885
H         3.27723206078530    5.80544161016892   10.17176279525560
H         1.89558299368180    4.85010842377929    9.63755324490374
H         1.66314894623230    6.53417364581402   10.12830940843751
C         5.00212847429872    3.36986240212891    9.74838647524965
C         4.00757858988465    2.34056242460974    9.31740360049699
H         3.03891518620822    2.79345562257483    9.12436923622524
H         3.88681218327959    1.57135067360647   10.07439567653494
H         4.34914743190014    1.87343118511621    8.39459069314066

