71
CSD_code = EQUKAC | q = 1 | S = 0 | Stoichiometry = C32H32CuN2O2S2(1+) | MND = 5
Cu        9.65543397868629   14.80947451634756    2.93202429225746
S         9.70508322856083   13.04796294796925    2.71155266390343
S         9.58685366087528   16.57425407960963    3.14183864552809
N        11.27355469333505   15.07189569887697    0.33717698198269
N         8.14491783112072   14.51404739012643    5.83487243092470
O         8.38428666496987   13.10327989783861   -0.41736092218896
O         6.21750826992461   14.29965070680464    8.20509212100010
C        11.39890377019974   16.86511594428532    3.24302337522341
C        11.94230523603337   17.18682055369464    4.46875953772603
H        11.31051867783903   17.35593115740198    5.32460485383615
C        13.31565542543167   17.27199085927816    4.62614984820007
H        13.71894564813230   17.51932003644804    5.59534070900687
C        14.14407479992059   17.02080730326927    3.55163893246850
H        15.21606159647020   17.06013063062593    3.66347079561773
C        13.58607788927780   16.71983662158343    2.32343090897965
H        14.23306906181430   16.53830904460196    1.47719862679222
C        12.21094296462959   16.64189514381550    2.12165498759533
C        11.73643136525239   16.40640114336850    0.70186536609832
H        12.55463337305289   16.69211716219752    0.02445800555275
H        10.89589536768271   17.08891680933846    0.52928459877850
C        11.86269831497999   13.85371446550769    0.83478797767364
H        12.41989073879351   13.33653192066778    0.03985536110061
H        12.53972981789651   14.10998510580772    1.65999020888695
C        10.82521736140321   12.79576333503937    1.28456494304562
H        11.30289785973072   11.83647678827946    1.47073142839444
H        10.06481840612178   12.65044816295892    0.51031663883710
C        10.60270103108730   12.63301498218464    4.28256363905933
C        11.92178429848946   12.24999295780154    4.15138863811194
H        12.35829951430181   12.13630673934014    3.17338921962463
C        12.71771340678215   12.03408183481819    5.26375162300748
H        13.74683025880820   11.74244301956003    5.12627731182205
C        12.18748992776258   12.20894930151024    6.52512011868811
H        12.79434432517083   12.06050241527184    7.40423285607041
C        10.86139541726163   12.57654004585023    6.65187414401805
H        10.44307266194550   12.70101295338546    7.64060964496552
C        10.02598330480033   12.79230750699649    5.55717168919331
C         8.57725047743623   13.10663181759213    5.89069649931054
H         7.93904584845313   12.58231760447964    5.16992485869064
H         8.35224852648935   12.70771847175340    6.88313562340115
C         9.02858123812989   15.47234735467695    5.71159078928156
H         6.52076974351017   15.12693001706389    7.81545017361568
H        10.02977553323800   15.26492053467013    6.09249732410542
C         8.85281626396850   16.71438375247664    4.92633766320849
H         9.33459222717371   17.59549554024402    5.33722912670069
H         7.83009057932622   16.94230409889435    4.63828994523664
C         6.77360079321200   14.68086742696172    5.37079365719945
H         6.79913487284491   14.60865510506716    4.26388989022821
H         6.42385061088039   15.68469762177121    5.63524412474908
C         5.84116796422445   13.62486128300784    5.90671036971094
C         5.60718523653849   13.50417270131169    7.27990663665176
C         4.75714429404463   12.50910364987253    7.75043751854435
H         4.60086666772036   12.43562055374604    8.81448460631732
C         4.13326482865136   11.64968757145695    6.86852300599293
H         3.47286505512918   10.88522022524802    7.24603957387218
C         4.34853945862121   11.77241365938058    5.50490681880435
H         3.85837336232934   11.10641120521217    4.81304253927897
C         5.20096290446201   12.75158350681344    5.03379027293065
H         5.37782741234247   12.84349085810981    3.97163534607534
C        10.46303902789225   15.02812784464412   -0.86659443358028
H        10.85282554218421   15.74317653862970   -1.59922724039377
H        10.48444408376424   14.01839404728145   -1.28329402687682
C         9.04266346991891   15.38018189121872   -0.48764282932229
C         8.12891862199778   14.27174783703635   -0.13090803066554
C         6.91699984594796   14.66487537009027    0.57883659061687
H         6.31451696959090   13.86219043294837    0.98000730699487
C         6.54669375431064   15.97642644477736    0.67978805857957
H         5.63602972032799   16.24694908087281    1.19521020603959
C         7.34403265836527   16.98068177839905    0.12395364605273
H         7.02354975629267   18.01088101095720    0.17048502135807
C         8.58720046340777   16.67314565531119   -0.43402222907891
H         9.20381203872821   17.48275832553805   -0.80355060536688

