42
CSD_code = EQUKAD | q = 1 | S = 0 | Stoichiometry = C12H22N4O3Re(1+) | MND = 6
Re       18.02569191144825    3.27268653833707    5.42187473433906
O        20.79257396742205    3.42862151159099    4.04806356018181
O        16.61525351636684    3.17106207896539    2.67363217702098
O        17.76829251787826    6.34964625267963    5.36881887382441
N        16.11454787752949    3.07577093672859    6.65814107212137
H        15.88629145344558    2.07639181403987    6.62737518116698
N        18.86923790002493    3.28740402412547    7.64803427135312
N        19.23855016522087    0.18704049051811    7.20473957002725
N        17.87400557477448    1.04481533838444    5.55585779607412
H        17.16964595561634    0.74546481472343    4.88289779076423
C        19.76304483479304    3.37044996831986    4.54095698304263
C        17.15469247349884    3.21534498291874    3.67773397415222
C        17.89554613157149    5.21611979299088    5.38893662096927
C        16.40921441961293    3.39841492199877    8.06215775872797
H        15.62409721601516    3.01976850566992    8.73028094240873
H        16.42827245046441    4.48673213749721    8.16326286334385
C        17.75013856146508    2.79380799364701    8.47794418437387
H        17.93262864861218    3.02273671392984    9.53712578044893
H        17.69307866928888    1.70632386746938    8.37538402174841
C        20.07085249476506    2.46450409735872    7.91328770651027
H        20.09224528825729    2.17694491822322    8.97276381796524
H        20.94981644261012    3.08236961063383    7.71745947581031
C        20.23518327770682    1.22564456026885    7.03010892812055
H        20.23915697967033    1.52845875527371    5.97908232959339
H        21.21370442422980    0.79225267976933    7.25357583188245
C        14.91065927288017    3.78593129587586    6.20320595687433
H        14.05772368581698    3.58676636710601    6.85898786951249
H        14.65850126078737    3.47256799270271    5.19145778673660
H        15.09836626278551    4.85894045671972    6.19158668215911
C        19.20249515637831    4.66009283736645    8.07734058602953
H        19.55122424135428    4.66693913573909    9.11556488914784
H        18.33807917583300    5.31517245302799    8.00391571656579
H        19.98497184564803    5.06560877473870    7.43761587044533
C        19.57347239573749   -0.86314026362399    8.14260040740639
H        18.67773422660786   -1.30233112768952    8.57728559558106
H        20.16498245004108   -0.43478384590055    8.94960498009861
H        20.15973744629020   -1.65596993666836    7.66975310490655
C        18.24169003480680    0.05563890747287    6.31069745856385
C        17.54289185211503   -1.27042641219242    6.23762211154910
H        16.95306726538632   -1.45455280829979    7.13561818645960
H        18.26616376235899   -2.07751295479001    6.14209930652416
H        16.87367651288412   -1.30451817764819    5.38074724546760

