47
CSD_code = EQUKIM | q = 0 | S = 0 | Stoichiometry = C17H24ClIrNO2P | MND = 8
Ir        1.98295775942513    4.94155594929556    5.98489614909748
Cl        3.78325442047074    5.32955546344830    4.56637452148281
P         3.00842313550607    1.95639599165931    5.94970397644525
O         2.87295521648265    3.18798369473814    6.84500087395091
O         2.62360087531992    0.66979694509935    6.55300412378750
N         1.42722120917360    3.64354164423087    4.50439245596140
C         1.90094406401062    2.39417310784369    4.52453009342120
C         1.55347293160778    1.46409459353845    3.56468120672112
H         1.95715733287392    0.46772402927175    3.66002535405594
C         0.69772357151999    1.81090885896504    2.52665693010644
C         0.23558934936760    3.12571799426578    2.51055731123339
H        -0.42188226196719    3.46760629951440    1.72600142904845
C         0.62048227836262    4.00088879591960    3.50442314634005
H         0.28422197835858    5.02763110201956    3.49304149143651
C         0.31508396282815    0.83154362464811    1.46832690415968
H         1.09342980892811    0.79723916134645    0.70574977296072
H        -0.61787074971087    1.11720007178781    0.98896826930820
H         0.21605965149884   -0.16643797481628    1.88810182565448
C         4.67090651315420    1.93686665296598    5.17048569155456
H         4.88514057210411    2.87994401119511    4.67802032747967
H         4.74017242440668    1.11219396432208    4.46816599419918
H         5.38040168022986    1.77723015768734    5.97997811267759
C         0.61457317397068    5.29499230727404    7.72413111140444
C        -0.03203551197679    5.82753834702286    6.58652407857174
C         0.84487776547834    6.81224607873529    6.00107717174308
C         1.97858685338898    6.97596100487204    6.89264474180166
C         1.86148718609719    6.00955335558323    7.91762135572003
C         0.09416863113192    4.26335394839707    8.66438330124295
H        -0.87106244962230    3.88417361123578    8.33966283390729
H        -0.01020197723564    4.68428182850456    9.66482599747484
H         0.79348112705761    3.42922008088557    8.72326406780209
C        -1.40518376107481    5.47088619478177    6.11584671351283
H        -1.58286344216802    5.82611188866322    5.10408663739643
H        -2.14514373939519    5.93251706871292    6.77147101629279
H        -1.56179427670106    4.39385682495268    6.13570572844103
C         0.50724233516480    7.77922410650534    4.90952993589851
H         1.39114650861615    8.00624672139264    4.31771723335455
H         0.13932193083052    8.71043775295287    5.34395152826755
H        -0.26267646392475    7.38792270974524    4.24878223115983
C         3.00583987420424    8.05124432552276    6.74967442498014
H         3.72261499312545    8.01610250291585    7.56475921797216
H         2.51803853481252    9.02613758493179    6.74980479315145
H         3.54939699532311    7.94128640143941    5.81224644358890
C         2.74655893007757    5.80744809104589    9.10169922419863
H         2.98659685694355    4.75085188519884    9.20768550514993
H         2.23586041372984    6.13490945443932   10.00883043866342
H         3.67532378818727    6.36194178527734    8.99988830724577

