77
CSD_code = EQULOS | q = 0 | S = 0 | Stoichiometry = C34H37Cl2N3Ti | MND = 5
Ti        6.37134173642207    6.06897373783929   10.07722153398950
Cl        6.75801456439185    7.79194887299080    8.72553923707266
Cl        5.42576757847148    7.38972302436579   11.58387432273533
N         8.10576533865621    5.18749955441000    9.24336493802355
N         6.90507785785923    4.71782935281166   11.57476104370433
N         5.06173734789940    5.16722391226284    9.39255232218802
C         8.62690994023091    4.29151896367633   10.01769120053382
C         9.78989139888228    3.41375454691819    9.92616604760199
C        10.79870819578760    3.21109626320181    9.01449630157024
H        10.86819781077416    3.79198990055183    8.10705154810758
C        11.75879119103882    2.21952585775661    9.29036624737088
H        12.55081489717441    2.06666733122873    8.57191886253843
C        11.72878646601028    1.44819938914610   10.42701642766182
H        12.48947202428279    0.70067745067653   10.59771853903395
C        10.70141340647798    1.62385828048829   11.38267087776864
C        10.51622348264663    0.92049496548154   12.59564031474432
H        11.21681614483365    0.14641719788973   12.87213974265043
C         9.45476137567948    1.21932904398103   13.41522904411265
H         9.33234145826759    0.67073774149981   14.33768501656792
C         8.50788157930652    2.21454660653464   13.10847125297344
H         7.69147480374747    2.40943911319164   13.78728554839828
C         8.65597863260052    2.91705672042598   11.93553293414096
C         7.93804991310320    3.99676782419755   11.26839646535126
C         9.75611740232549    2.60960594024817   11.09378972770631
C         8.76577827928888    5.61711247001567    8.08354739760500
C         8.24583889912371    5.27275635271874    6.83174523122039
C         8.89071777962688    5.73119868034561    5.69524625745295
H         8.49443289368567    5.46639747675015    4.72526133298917
C        10.02261817726667    6.53110854085785    5.77412527245149
C        10.50345967360963    6.88231061389901    7.02810970998521
H        11.36532979396587    7.53019571069868    7.10363303844265
C         9.89506038701582    6.43803308826328    8.19012088920764
C         7.01682084395921    4.42212976027983    6.76231974254200
H         6.26144489572624    4.82764678064792    7.45041451840843
H         7.23613713712155    3.39977996767673    7.07717265524740
H         6.62267978135311    4.39763262231253    5.74946215127911
C        10.68486898210243    7.04228043093913    4.53112863936886
H        11.74001326996715    7.24001718044919    4.70437953405432
H        10.21362651236610    7.97474958188835    4.22016918786972
H        10.58644011730571    6.32870574287993    3.71640494836792
C        10.37532623676348    6.88143424692697    9.54141689108111
H        11.12288342717196    7.66400893108560    9.43946832768149
H        10.81723019040825    6.05394399978333   10.10026975654969
H         9.53439837632480    7.27888683841688   10.12019571453789
C         6.18544133931138    4.45177359478489   12.75295167025023
C         5.20718825650419    3.45113017401052   12.74888955790021
C         4.46142669615802    3.25024611038934   13.90007005235540
H         3.69229556169085    2.49081955578862   13.89821752315849
C         4.68389817786267    3.99256802454148   15.05095081009647
C         5.69846421255666    4.94022398657106   15.04531353105339
H         5.90188235584628    5.50520925882394   15.94365737516578
C         6.46100018891667    5.18114945946374   13.91472850979774
C         5.00128930582175    2.61381845714042   11.52309101481698
H         4.06034646639165    2.07258372331124   11.58136634022344
H         5.80906763308416    1.88584736755800   11.42196338594151
H         5.00985523878964    3.25258233417136   10.63169021437971
C         3.84608687918444    3.78250825672500   16.27541635681133
H         4.43522938615752    3.92536777635637   17.17859498700430
H         3.41521149677067    2.78425887514584   16.28723631335471
H         3.02932571602191    4.50426208722939   16.29067092847209
C         7.58503059514231    6.17328101636693   13.92407567813354
H         7.38085474169360    6.97075845122374   13.20564998312393
H         8.52639862186057    5.69271487484420   13.64775625936902
H         7.69653285646537    6.61654021314423   14.90983126310938
C         3.70336716646364    5.32472116079559    9.06194657515985
C         2.81405577475506    5.23471641197825   10.32319650994999
H         2.76949177925973    4.21129230735723   10.68669677691762
H         1.80562487536856    5.57152014435484   10.09565604747306
H         3.23764649030768    5.86514846713151   11.10532274994254
C         3.25721519102259    4.25831802446115    8.03917725974138
H         3.44138225130538    3.26241898459936    8.43773139226484
H         3.81639406439202    4.37118915916516    7.11319210625337
H         2.19614258813005    4.36443841656522    7.82884550719695
C         3.52676673637658    6.73032452968102    8.43074096334731
H         4.19456119693484    6.84101129175624    7.57495610977957
H         3.77944569083431    7.49225315177394    9.17214479092831
H         2.49734026738503    6.86599374429026    8.10620076328121

