62
CSD_code = EQUTUH | q = 0 | S = 0 | Stoichiometry = C18H37BrMnNO2P2 | MND = 6
Br        5.82909483512992   10.32261083794505    5.32149667187455
C         7.79320852740904   12.96970976464305    3.05783613602253
H         8.02538189640977   13.85544229474470    2.46425282734423
H         7.78247684108123   13.24677098746862    4.11840880061020
C         8.83535556017627   11.87858170875859    2.82791948750809
H         8.92397724064551   11.65249041374869    1.75872223216377
H         9.82299954504641   12.21439417444262    3.18632509798469
C         9.37153455799521    9.58254865389803    3.52796609633617
H        10.33087501022489    9.90308231913332    3.96748178984144
H         9.56035384624308    9.27899284262456    2.49132216363072
C         8.77880111466082    8.42471413327192    4.32688811563502
H         8.58862633120789    8.75247757524272    5.35401004035815
H         9.44723757069722    7.56345284758566    4.35293763059374
C         5.02455458217484   13.33139075537096    3.76142194529627
H         5.30660572195289   12.95437387422679    4.75569267374990
C         3.56388824430885   12.95621642596551    3.52462757343062
H         2.94915748849443   13.29264205689998    4.35717327047098
H         3.46105134409327   11.87272532112576    3.43936047436028
H         3.18389700567819   13.41276376867684    2.61305010469184
C         5.22454585635717   14.84367179520176    3.77022891767454
H         4.76268508386010   15.31564903618137    2.90890405826910
H         6.27640118931211   15.11897251834853    3.79816026029878
H         4.75003110725896   15.24934483723551    4.66285578522606
C         5.91855311766465   12.86366397877348    0.87054756478538
H         6.82496275134857   12.44223862248013    0.40755689139228
C         4.70687524988960   12.19913411614199    0.22011163739682
H         3.78057505969854   12.64311181044498    0.57593990373814
H         4.68201250373728   11.13263796632140    0.44548677703000
H         4.75000677947195   12.32054684596492   -0.86093901669962
C         5.89904949051270   14.36524540992359    0.60386754948833
H         6.08370469383544   14.54093227934101   -0.45533228650901
H         6.65836172955377   14.90103983031323    1.16871936922769
H         4.92550913562146   14.78500048984919    0.84153075577321
C         6.37795166349196    6.76156003029876    4.73391505397010
H         6.66910056572291    5.77545907555311    4.34974937444225
C         6.84711378728341    6.87589062386130    6.18096528757582
H         6.63134627991471    7.86234495940840    6.58499175046042
H         7.91133642064504    6.66903441485021    6.27704792706766
H         6.30822481575712    6.14631566153440    6.78371755827385
C         4.85605463286402    6.88063192741681    4.65187291459251
H         4.38522289094324    6.03917415818028    5.15767941224950
H         4.51756523498091    6.89618673254522    3.61615356562574
H         4.51989572825998    7.79490677925274    5.13529498409498
C         7.67613437130834    6.90508430889061    2.13497624593161
H         8.17041216547823    7.59155151969441    1.43402721856117
C         8.65240699074090    5.77691994757685    2.45692303198038
H         8.29274224838383    5.14169381101892    3.26372786334795
H         9.63517634374827    6.15722581943084    2.72725068457037
H         8.77371643993410    5.15236679287612    1.57301544546383
C         6.41906438832232    6.36915116486011    1.45139084410284
H         6.66635548980350    5.94091933504698    0.48157696191030
H         5.70269044518158    7.17873408022553    1.29480565535906
H         5.94675416095677    5.59607219194475    2.05430757524195
C         4.67041858521084    9.53341468404545    2.52533685131453
C         6.78372241460337    9.81873100395541    1.30172677197465
Mn        6.30346171718032   10.03639429627921    2.96828140713477
N         8.40271177925703   10.67448940938287    3.52799710225651
O         3.61865065331055    9.18645238939031    2.17838336217324
O         7.08526582269602    9.66448304548894    0.19090377333596
P         6.10501771375450   12.29875839553657    2.64430531146628
P         7.14307011818430    7.99987155815575    3.55825839288513
H         8.25776512032786   10.93751159100228    4.51118637364048

