65
CSD_code = EQUVIX | q = 1 | S = 0 | Stoichiometry = C34H23N5O2Rh(1+) | MND = 6
Rh        5.44593310371959    3.08900589174457    9.63020705125065
O         7.99956258756743   -0.06709927504404    9.79656088349285
O         2.73848134605299    5.48055221004781   11.48531631222615
C         6.45798734283791    0.39053534783619    8.23141075302695
C         5.73463992525073    0.16500439423075    7.06644448968039
H         4.95689039689993    0.84125793588279    6.75217084902537
C         6.04476561694124   -0.96554997784365    6.33711719784924
H         5.49997752710321   -1.17127068179262    5.42883308683864
C         7.04070271338553   -1.85462566543798    6.74160914294694
H         7.24461010794675   -2.72475506434025    6.13832043004147
C         7.76949058543276   -1.64981438031201    7.89895923251202
H         8.53719776130438   -2.33186499348636    8.22359386875710
C         7.45890287594150   -0.51823710907496    8.62897661474019
C         7.34279085298539    1.05776287831586   10.07979723690921
C         6.78268971378543    3.89975482040914   12.29367724745454
H         6.14119463003986    4.76782911259572   12.36657378571533
C         7.72702682337688    3.68935876778752   13.28995614861133
H         7.79886961584597    4.39162625241770   14.10735112824289
C         8.57441911210726    2.59049326884808   13.25649496297822
H         9.29727342898379    2.44127665551867   14.04317704068720
C         8.48587441801470    1.68998169493478   12.21530699048117
H         9.13139842199026    0.82660788619093   12.16121445042403
C         7.53773210011970    1.90836464835706   11.21640237603357
C         4.44155865306782    6.08521443898468   10.15606957902428
C         5.25175951776337    6.98297470668282    9.47165093512300
H         6.08536017616342    6.64494006988272    8.87874762125016
C         4.94787231680937    8.32525180156247    9.58278843541193
H         5.55843995211272    9.04789295950922    9.06395137754319
C         3.87370738981420    8.77701580781684   10.34921472467615
H         3.67767562312536    9.83575159229555   10.40631998699283
C         3.05551230244887    7.90041016400152   11.03827103030127
H         2.22432048995874    8.23758936861511   11.63446997484250
C         3.35962821524389    6.55707113026801   10.92582622334380
C         4.08169200144859    2.15992654297836   10.76973977698297
C         3.89056452999445    0.80342087727780   10.99877123037127
H         4.55278839387347    0.06917788868223   10.56006644747375
C         2.84661653617289    0.35611520524693   11.79779403213778
H         2.72315990721917   -0.70437941314048   11.96102833157100
C         1.96314660575001    1.24658274476088   12.39208590085142
H         1.16144410269750    0.87916482297625   13.01332993507331
C         2.11513964801701    2.60152033297173   12.18403089061131
H         1.44229302050051    3.31880433596079   12.62880427310106
C         3.16362352782509    3.04444813537230   11.37833494735437
C         3.42544825596125    4.41760278418788   11.06736699258091
C         3.06707633185960    2.74501508707132    7.58801322097931
H         2.59859549058780    2.23872766369412    8.42262646477689
C         2.40136084927043    2.89566940896890    6.38228559879831
H         1.40064301840700    2.51290138300294    6.26621402093905
C         3.04807215212908    3.54134336464799    5.33816194278479
H         2.56062003432160    3.67386466427734    4.38493774931764
C         4.33239584569440    4.01336662694734    5.54144196047155
H         4.86622488121251    4.52199682606673    4.75556242242377
C         4.93482566147967    3.82495517226869    6.78336141705814
C         6.28021909903777    4.29361041204655    7.07635076504940
C         7.24706283806751    4.92699009525503    6.27136304727533
H         7.17034374981259    5.19200490373730    5.23831477590907
C         8.32424485291316    5.13117850996078    7.09994689679910
H         9.27637318552965    5.58118931684558    6.90625852734752
C         6.65774273504362    3.01360425197755   11.23127830190042
N         6.42476007154764    1.38251227822282    9.18649267929939
N         4.44257890309720    4.71328738273253   10.27674134798702
N         4.30174041510419    3.19250950485349    7.78854365581362
N         6.76550317934747    4.13876601219508    8.31132844214628
N         7.99200467277520    4.64360713133620    8.31152281891239
H         8.55034985916186    4.63780908921161    9.15392001746519

