65
CSD_code = EQUVUJ | q = 1 | S = 0 | Stoichiometry = C34H23IrN5O2(1+) | MND = 6
Ir       11.36198664789667   13.94516307705436    5.59135920033287
O         8.77529533464952   10.76996009640805    5.42565087562856
O        14.13082961638155   16.36142342821726    3.78075252338787
N        10.35886127692642   12.21444454207854    6.03141682574175
N        12.39761600507538   15.59367419810460    4.95014675633351
N        12.50363781235579   14.05358798339823    7.45127235355405
N        10.04364839612732   14.98860849501338    6.92447746021017
N         8.82803411451760   15.51640770828450    6.91312731620007
H         8.27206962209852   15.49685065997519    6.07048773646414
C        13.43311438104119   15.29892387113115    4.17835621438160
C        10.32654699491151   11.21865216372718    6.98303060841085
C        11.05506494176506   10.98884132497601    8.14348565354217
H        11.83679526320677   11.66172572117033    8.45418447813581
C        10.74469410000524    9.85850095119448    8.87328774216441
H        11.29337880724219    9.64949300315011    9.77847606104960
C         9.74303769250202    8.97403855711200    8.47290997270649
H         9.53859582752762    8.10415060534529    9.07635432424244
C         9.00915326440193    9.18315412231642    7.31944544423199
H         8.23709818260069    8.50439292272387    6.99814879008173
C         9.32047060389368   10.31433354785400    6.58899691821301
C        10.11905572609154   13.84861749176583    3.98018546337860
C         9.98281601900594   14.72630682765912    2.91192978962323
H        10.62658976040307   15.59065158120064    2.83252375470486
C         9.03000567556084   14.51545864726228    1.92452567377335
H         8.95212487317636   15.21425113333453    1.10485762336661
C         8.18030129847358   13.41856705528991    1.97079146939972
H         7.45001768993372   13.26675043345429    1.19155131583234
C         8.27738173119108   12.52322041013250    3.01527765604863
H         7.63135199307917   11.66094443673414    3.07868083554381
C         9.23468365681727   12.74432651334230    4.00546899911069
C         9.43284267500569   11.89281193166653    5.14072639385232
C        12.40172885089640   16.96571514311271    5.07494433150548
C        11.58041237171904   17.86292349292416    5.74605109034573
H        10.73288445237732   17.52519098812278    6.31843554395508
C        11.89124559613762   19.20483552606709    5.64856139479961
H        11.27234283881426   19.92711077058576    6.15795398701690
C        12.98314696214128   19.65645305957527    4.90769357686794
H        13.18427146974497   20.71469527036878    4.86018955837115
C        13.81263713170108   18.78009357900294    4.23178697450122
H        14.65751780861789   19.11726050267154    3.65519486215557
C        13.50135798027051   17.43735548586357    4.33097218180754
C        12.76393645470387   13.03478729076384    4.43422843561897
C        12.96539051584407   11.68362533532563    4.18350359423352
H        12.29089998250908   10.94581485995352    4.59379130362754
C        14.02841254811529   11.24726571835599    3.40464035168294
H        14.15621888230016   10.18968105678417    3.22715191955148
C        14.92687303731187   12.14745899926372    2.84820206092061
H        15.74472573461280   11.79079976685953    2.24195283965039
C        14.76743247085769   13.49834916713673    3.07416273045694
H        15.45025704156100   14.22299604715750    2.65755141234771
C        13.69845814263058   13.92811654978030    3.86073153045081
C        13.72588132848398   13.58304288879378    7.66173917980134
H        14.19137097958952   13.08066501708399    6.82492542782034
C        14.38072663528983   13.70698358370214    8.87574776412196
H        15.37303946571235   13.30534567144949    8.99886085436603
C        13.73169900792569   14.35231631102527    9.91918864124714
H        14.20951423850878   14.46631180971829   10.87970395847828
C        12.45742149047646   14.84647185906321    9.70644316640857
H        11.92099396291195   15.35315376295501   10.49177274346560
C        11.86786088257954   14.68063459553113    8.45503270121220
C        10.53342932918767   15.16583313773384    8.15252710783383
C         9.58033338363916   15.83614910056298    8.94435812642856
H         9.66542166586413   16.12606959165733    9.96999034712741
C         8.50585429811833   16.04010689552122    8.11237801190376
H         7.56210307497971   16.51185372445194    8.29434606026952

