53
CSD_code = EQUYUK | q = 0 | S = 0 | Stoichiometry = C16H20F12N2O2Ru | MND = 8
Ru        8.02855009692812    4.10316968227785    2.74973329231074
O         9.40944586868826    5.63627294715068    2.26111438698168
N         8.76759912783098    4.68153116244897    4.67729599285930
H         8.05692438211161    5.41922418888876    4.77834160373016
H         8.72585432997139    4.09383683336324    5.50885239286160
C         7.03877061521515    2.54615656434391    3.90303721766011
H         6.50067493692122    3.00402305387099    4.73426610407936
C         6.42675980883198    2.63862546947816    2.65832269665044
H         5.44895438909836    3.11271152375205    2.64314080348447
C         6.63438724350228    1.63099409941978    1.54821074788813
H         6.15338434032485    0.68996069807963    1.83482496724822
H         6.11699116918211    1.98534628818581    0.65393389277468
C         7.93789586521557    1.38306995195017    4.28122637792894
H         7.83896037480225    1.18810209016904    5.35029137434944
H         7.58303824243862    0.49180172115755    3.76176165375433
C        10.09166808894389    5.29580343991828    4.57998901122119
H        10.85023607499794    4.50905581291228    4.53901938958543
H        10.31010271525213    5.94196849498717    5.44070536239056
C        10.15363323225539    6.12628321227750    3.26163034449842
C         9.74940160630538    7.58949702229014    3.62883301725262
C        11.64329896647716    6.17721659107257    2.79998663588007
F         9.54452553113865    8.36526075210283    2.57621158987552
F         8.63451846629866    7.59569700250379    4.37491787970692
F        10.68864276812024    8.19082337558307    4.38686233612086
F        11.88700312053496    7.11731852307608    1.89383144695647
F        11.99146060386620    5.00272229017520    2.25294863648992
F        12.50393503078799    6.37083429782312    3.81653591082369
O         6.64762146080066    5.63625079136121    3.23838184209717
C         5.90342997746746    6.12627284639835    2.23787274322438
C         5.96538164239300    5.29580263612483    0.91950857377015
N         7.28944618587898    4.68152334523195    0.82220101556287
C         9.01831462842786    2.54614206839332    1.59646234520275
H         9.55639664534865    3.00402523563628    0.76523458830010
C         9.63032156354643    2.63861611445863    2.84117832454089
H        10.60812055475744    3.11271438336644    2.85636557203425
C         9.42268381362196    1.63099381479604    3.95129567369494
H         9.90368583559909    0.68995952827570    3.66468434454726
H         9.94007907309604    1.98534766371978    4.84557219338454
C         8.11917372944550    1.38306782118051    1.21827614244726
H         8.21810455592815    1.18810156076883    0.14921071501190
H         8.47402919227761    0.49179762298094    1.73773827293780
H         8.00012899464138    5.41920962951550    0.72116775487930
H         7.33119231975100    4.09383381954228   -0.00935809308952
H         5.20681261440367    4.50905621594444    0.96047830855928
H         5.74694883605309    5.94197179595432    0.05879487807207
C         6.30766023006426    7.58948847613930    1.87067376114924
F         6.51253819951573    8.36524887577291    2.92329738963341
F         7.42254278156924    7.59569124480771    1.12458686239555
F         5.36841852353117    8.19081832048282    1.11264742623858
C         4.41376326335196    6.17720827637707    2.69951496423030
F         4.17006188335521    7.11730467422231    3.60567648458516
F         4.06559933657213    5.00271129486774    3.24654524335538
F         3.55312716255990    6.37083485442268    1.68296760787051

