55
CSD_code = ERABOP | q = 0 | S = 0 | Stoichiometry = C20H31N3Ti | MND = 12
Ti       -2.16062675515757    7.91872184825059    3.81034071370512
N        -1.57207128608202    7.32862651542872    5.47263597022842
N        -0.50040666637479    8.71530166732433    4.15808728004899
N         0.27348225104444    8.27283197907094    6.46658496944853
C        -1.83075747402494    6.59360673098175    6.68811330323032
H        -1.57886024274999    7.24994917172225    7.53766288591214
C        -3.29948167745561    6.17594937547473    6.77786293524253
H        -3.93985300555557    7.04357907119692    6.91980912795376
H        -3.43927173386716    5.50616286597194    7.62363650960536
H        -3.60264573653477    5.65826280681286    5.86724171741092
C        -0.90526736294323    5.37004746456181    6.76350144373017
H         0.12450548960770    5.71278337147904    6.71439348920994
H        -1.09641067792734    4.69542610272690    5.93134756960929
H        -1.05702332182893    4.83590655761277    7.69820771739465
C         0.58742193902302    9.45781796591665    3.56979557516512
H         0.98196091284103   10.18605360850698    4.29528557900354
C         0.09620580645617   10.25213749021253    2.35344147191463
H        -0.55069729413005   11.06909165052534    2.66649776266154
H        -0.46001439428468    9.60472193416377    1.67496397444085
H         0.94776515680350   10.67334259276913    1.82291721083128
C         1.73772357531685    8.51591298910030    3.16772447864847
H         2.00704291239990    7.88237337715646    4.01078713078625
H         2.61071566166163    9.09116106258307    2.86625826582751
H         1.43462097524228    7.87556502322686    2.34277420794642
C        -0.47142929484051    8.15764264194484    5.43151843699208
C         1.34032672251806    9.20479953757849    6.69954226827212
H         2.02593895511173    9.30819532383254    5.84299454692625
C         0.76157147548909   10.58425581221307    7.04438500290135
H         0.11666815490495   10.93938666274451    6.24160368826928
H         1.56024974611241   11.30519097619445    7.20630003166758
H         0.16293439365530   10.50831626523784    7.94906629990993
C         2.15090222013783    8.66754998135597    7.88265453354646
H         2.58777968088509    7.70543830470284    7.62819665291640
H         1.49723106032124    8.53032510766346    8.73923863838662
H         2.94714606599860    9.36055946825089    8.14415794134711
C        -1.04635821619903    6.05147321108369    2.85723374009000
H        -0.08998771449260    5.69224966958959    3.21788559596284
C        -1.24935437215265    6.96513730557250    1.79833524062677
H        -0.47598037768093    7.37245141744613    1.16011515259387
C        -2.63098966164821    7.04636483975277    1.55206074173765
H        -3.09060829392981    7.57547736460532    0.72707294886875
C        -3.28765298729083    6.19895690823866    2.46227854336418
H        -4.34346233137462    5.95983784256446    2.46109992328752
C        -2.31324502965009    5.58322467991723    3.26695954152046
H        -2.48905946806607    4.77583217421457    3.96531504975484
C        -3.35127891205176    9.87652191495143    2.93929352664282
H        -3.12626943417887   10.43863003312348    2.04153767399772
C        -4.34793425378794    8.89541157279138    3.06226567543644
H        -5.00271160324960    8.55924927594046    2.27012012817189
C        -4.42945951712020    8.50981051248487    4.40951509227598
H        -5.17411443523093    7.84569296587602    4.83013668434051
C        -3.52054265774386    9.30736777050805    5.14388205325161
H        -3.43489337606658    9.36260981370150    6.22248626598691
C        -2.85693648181759   10.15375332891546    4.23291250023856
H        -2.18713710804305   10.96025409422383    4.50546459075779

