51
CSD_code = ERADIL | q = 0 | S = 0 | Stoichiometry = C18H26Cl2FeN4 | MND = 6
Fe       13.12553223085180    3.58484618276689   10.67889031223721
Cl       14.91991787096336    2.45918495799786   10.06057516917448
N        13.81652677959180    5.03949986981690    9.13112905784875
C        14.81435401369182    6.80212849968733   10.51400885281799
H        14.68695137830153    6.07733526716615   11.31344388421444
H        14.17319248544144    7.66372466624397   10.69875681260654
H        15.84480490880737    7.14953294183846   10.51039211339757
C        13.38411658544036    0.09739087716116   11.69942617827043
H        14.04274794976316    0.74764319163242   11.12977169206182
H        12.88136417443764   -0.59160329075062   11.02111749936004
H        13.97782789047031   -0.49270253160397   12.39329469443964
Cl       14.12457887305978    4.32036306734830   12.50462971777139
N        12.04502396445698    2.93641465916733    8.99206216060829
C        14.48883773457811    6.19339759947692    9.19420751462311
N        11.34766174450083    4.61755608864141   11.14042761432547
C        14.90360590331661    6.86638017140687    8.04410114442578
H        15.44753298595228    7.79217117870844    8.14938026606912
N        12.14317104050904    2.16938747532828   12.11732490173854
C        14.62510551448335    6.34772727617328    6.79701315597013
H        14.93524777196862    6.85529419730242    5.89607075186152
C        13.94327054755834    5.14408983732171    6.73783071687878
H        13.71370414420487    4.67920105663117    5.79170574440657
C        13.57292719495803    4.52033944299485    7.91915439267047
C        12.93055967559608    3.16799161081744    7.85683610930774
H        12.40547066917529    3.02856313078958    6.90024122805240
H        13.74408979453818    2.43762839118836    7.93321454350869
C        11.68143574656921    1.52787980075601    9.03110025768958
H        11.18116208151435    1.21703437616794    8.10438159233344
H        11.02067196201225    1.33349637714871    9.87165495742124
H        12.59090786457568    0.94832292300928    9.16347694590982
C        10.86150881289096    3.79221674874600    8.89460668553253
H        10.09411964921948    3.33704087120928    8.25223690344552
H        11.16071688267793    4.74110316461229    8.44534432114630
C        10.30180380715655    4.05311327393901   10.28588319501984
H         9.43118893038401    4.72221223771806   10.22940163464146
H         9.97557572720519    3.10763881588384   10.72325763589223
C        11.44462348869502    6.06071645443304   10.97986178904889
H        10.52043944597709    6.56232219398972   11.29615623455715
H        11.64445562051917    6.31127917857383    9.94148741783746
H        12.27379292247365    6.41327728757800   11.58705360946885
C        11.07431823149841    4.31292661488421   12.54000980062849
H        10.07312935210350    4.65712562423738   12.83937948572577
H        11.83023451308951    4.83864914668076   13.13430941916939
C        11.24616316125902    2.85459667080982   12.83967990924974
C        10.52684394047575    2.29495094301104   13.88457482426344
H         9.81302968810203    2.89591621460401   14.42613137992103
C        10.75862329681608    0.97438957482050   14.22956098520939
H        10.22287595856954    0.51109904335071   15.04435417240364
C        11.70363604765753    0.27791092420217   13.50577469369708
H        11.93564010939063   -0.74869323169115   13.74281886851531
C        12.38027893255073    0.89768895607281   12.45429705262587

