71
CSD_code = ERAGOV | q = 0 | S = 0 | Stoichiometry = C28H32N2O8Pt | MND = 4
Pt        9.00189086333621    6.10113335974980    3.34222703933308
O        10.37989939848674    7.90122625281348    5.52428905597246
O        11.75652481194136    8.68188845597861    3.93688775205702
O         7.08844362182536   10.54306765937739    4.77496584867429
O         9.32025105855199   10.59050379205354    4.92486876760388
O         5.14649152606080    8.10833284299867    1.79549050853027
O         6.07174206402635   10.12489217897939    2.07106676815007
O         6.93792854850322    5.71342038425414    1.31667073122146
O         5.25875336987533    5.28190362840147    2.73585721779085
N        10.84985686219258    5.32606716652395    2.85259634132611
N         8.63816258047149    4.09150818931390    3.64689352035865
C         9.49374159910615    8.08339189850432    3.36392355091664
C         8.27029787741582    9.00341736261998    3.47073317714998
C         6.95089346605482    8.29158799212211    3.31845662094618
C         7.06285134851625    6.75892042901223    3.39659377094099
C        10.65181612020732    8.31218985364758    4.26390184396299
C        11.41147042790197    8.10565276713897    6.47332174314426
H        11.05503982948010    7.68525385047992    7.41066696790906
H        11.60518497868105    9.17473279851821    6.58082041144054
H        12.33083899594373    7.60943428140596    6.15241591571426
C         9.21523106757356    9.04834928515666    2.25740804207585
C         8.71797279663633    8.50754753485381    0.93139259735550
H         8.24640372184919    7.53375103985886    1.04942836080475
H         9.56519370324228    8.40119737757484    0.25494688601742
H         8.00979684843574    9.20048945998633    0.48099262980419
C        10.07460240164901   10.27890095113639    2.06037387386432
H        10.41133622476685   10.69003458388208    3.00524164408211
H         9.50323112337329   11.03692455332898    1.52643634280477
H        10.95381031489127   10.02226507134755    1.47242180759505
C         8.31536457436849   10.11648838126313    4.44432847259678
C         7.03763776568731   11.62759174714255    5.68477630901736
H         7.59425194709467   11.38881832397867    6.59475879924021
H         5.98592561674103   11.79011799027588    5.90757136822571
H         7.47233002799438   12.52240410639345    5.23438285117209
C         6.03221589672341    8.95498801734373    2.36174155010274
C         4.24192455625968    8.68494576298091    0.86883132562389
H         3.49511298523062    7.92346307274231    0.65590943644978
H         4.76783225076938    8.97109589860087   -0.04513857656982
H         3.77491515140889    9.57406086658196    1.29761257114811
C         6.40287535666813    7.50449429167968    4.51466404855779
C         7.12883018199055    7.57860025324332    5.84273651610148
H         8.20703726196552    7.52528566748472    5.71143722607846
H         6.81431987063064    6.73944361411625    6.46270792529330
H         6.87717450413762    8.49811990284486    6.36672921785889
C         4.90183511388920    7.46582743333548    4.71488259240985
H         4.37161655706515    7.31025491581786    3.78324058045433
H         4.57286724170929    8.40293179745566    5.16269757228704
H         4.64270063310977    6.65010152145667    5.38739127731299
C         6.27396267019451    5.89127193543303    2.49327733461262
C         6.30183388962217    4.87522374900124    0.37020513698665
H         6.93640612784707    4.86828178494199   -0.51287969414732
H         5.31175829742375    5.26661685817093    0.12713247735783
H         6.18893256048249    3.86335390029998    0.76863985053912
C        11.85103695082232    6.00098260849093    2.28877765293937
H        11.82744780212896    7.07864128825523    2.37785569718395
C        12.90426758095114    5.37523825862696    1.64525459807394
H        13.69457988008845    5.96678433079050    1.21303738594463
C        12.92123496695550    3.98961682918205    1.57011947522100
H        13.72386619562409    3.46973375739884    1.07013525947956
C        11.88096367763162    3.28463241856986    2.14720404844117
H        11.85366815209809    2.20868338264293    2.08438010325771
C        10.85546069077366    3.97687369048845    2.78712963365809
C         9.71237445189175    3.30858089003599    3.41665760055960
C         9.72139741190889    1.96439725545477    3.78358907060196
H        10.59633565182144    1.35898778717383    3.61042988667090
C         8.60726976766504    1.41884888093427    4.39447113362123
H         8.59540143043347    0.37942151214327    4.68335990484118
C         7.51341598906681    2.23900191249474    4.63598620067939
H         6.62579194028431    1.85801023273181    5.11392584926430
C         7.57391754538760    3.56634401006262    4.25127104182254
H         6.73235132445570    4.22465416093431    4.41588955148315

