27
CSD_code = ERAPUI | q = 0 | S = 0 | Stoichiometry = C11H8Cl4N2OPt | MND = 6
Pt        3.60366148343187    3.66867738780957    2.31947012412380
Cl        1.24947631834148    3.40978612730961    2.77449169620778
Cl        5.84825012279297    3.83759991915396    1.69823046112036
Cl        4.21414947721207    2.82472404842537    4.37530605737159
Cl        3.64675517205998    5.82004212520858    3.14487314146501
O         0.18813926481696    2.15725145321808    0.21487426087706
C         1.32191535596936    2.48925351223084    0.50101426510487
C         2.31439156938766    1.44134688322779    0.94537125291050
C         1.99602844425742    0.11648740869648    0.65897691507875
C         2.88152763927192   -0.88559861276889    1.01414896435686
C         4.07493756064095   -0.53571422037858    1.62809115850398
C         4.32126077880975    0.80074347743145    1.89349518761230
N         3.45486617673499    1.74962913591805    1.56197797622788
C         1.86934439217307    3.79556097209519   -0.02296685835407
C         1.19139616651862    4.37397457605634   -1.09275380277589
C         1.66376985745139    5.55578501707803   -1.63554854953776
C         2.81624153917375    6.11927938340436   -1.10842559873601
C         3.43284825312254    5.49620195269728   -0.03661606005781
N         2.95880963381075    4.37151612812361    0.48422103286975
H         1.05103905613661   -0.08861166220576    0.18038415818655
H         2.64355882981668   -1.91950241137884    0.81661336698940
H         4.79870298211889   -1.28061523216744    1.91569645292562
H         5.22560327328611    1.12545642361031    2.39067898073356
H         0.30033273989097    3.88556323533664   -1.45550480072993
H         1.14129167592641    6.02804569557775   -2.45322310902142
H         3.22589592685455    7.03453017364917   -1.50330158219223
H         4.32070630999255    5.90568710264035    0.42652490874043

