28
CSD_code = ERAQAP | q = 0 | S = 0 | Stoichiometry = C11H9Cl3N2O2Pt | MND = 6
Pt        1.26861767211460    4.86404156811306    6.48929683850834
Cl       -0.73741807740225    5.95085792219927    6.63457946455785
Cl        2.17844537508207    6.44442632969619    5.11053988678430
Cl        2.03408299220446    6.02807877626696    8.33185426813836
O         0.69688087136228    3.55285668390732    4.97122612122717
O         0.90364134800445    1.31787408989587    4.64126978782995
N         2.99879057402159    3.71193454046413    6.28580905707748
N         0.47673048629256    3.28525967891962    7.60410464254001
C         1.16501192339844    2.39533778669415    5.49110873907839
C         2.67606604359032    2.53834938277990    5.75167774519628
C         4.26436333270405    4.03923075560756    6.49920434129750
C         5.28658035533304    3.16118624314349    6.18089506907025
C         4.96762120150540    1.92796083647056    5.62925402648422
C         3.63748465225840    1.60430134441291    5.40932714137959
C         0.52662783837749    2.17469819363974    6.87553023699014
C        -0.11537734882318    3.29759858816173    8.78886551311658
C        -0.69018601679094    2.14876351520163    9.30555680376368
C        -0.64130614623707    0.97799190483723    8.56143290361100
C        -0.02056662077871    0.98496793751461    7.32172548533601
H         0.43075790215327    1.68543818178616    3.88185294913747
H         4.44201269761837    5.01650996864628    6.92707914992656
H         6.31158021884859    3.44526886679729    6.35596134515141
H         5.74625114008902    1.22893845160100    5.36362867506374
H         3.33069794673632    0.67058178450942    4.96673824586083
H        -0.12115841715779    4.24374935870162    9.31303671753377
H        -1.17319672994094    2.17735696314431   10.26867581037463
H        -1.09005013671626    0.07111657790711    8.93728623971944
H         0.03161492215194    0.11192376898127    6.69148279524462

