49
CSD_code = ERAREW | q = 1 | S = 0 | Stoichiometry = C24H20NO2PTc(1+) | MND = 8
Tc        2.95907494169458    2.33467159783670    9.20940338597179
P         5.18247455690563    3.19792853901924    8.68322742208897
C         6.30973159316217    2.92384199961029   10.07276584933238
O         3.64414750548151   -0.38703333910015    7.95541096595287
C         6.02181378451503    2.44880414963353    7.25436095562077
C         4.10277905124087    5.76528129393174    8.36143516714574
H         3.14791219436078    5.32363392047778    8.61581509996760
C         6.75433215410171    3.96063739755999   10.88595718658540
H         6.46873531957703    4.98080261141147   10.66987440832569
C         6.47246219493410    5.54359358768547    7.97501174761918
H         7.35857268658830    4.92566710401793    7.93091679495158
C         3.41081153535402    0.63786467634703    8.38929162815893
C         5.26214193953842    2.15251099470705    6.12383111857560
H         4.19287584604309    2.32902205274900    6.13523720500420
C         4.18572047514721    7.11595897863494    8.07089711740295
H         3.29710087813536    7.72759324149156    8.10177694386810
C         5.40611075160830    7.68042903321155    7.73752053077669
H         5.46819029891105    8.73334720582092    7.51129551552674
O         1.69618445450241    3.32701290741425    6.79733163730752
C         6.54751665495630    6.89351541141834    7.68876161171876
H         7.49677687575236    7.33304835455903    7.42390678087374
C         5.24644154836239    4.97511553151533    8.32014145635574
N         2.23114504361072    2.91498939588116    7.74030118269752
C         7.24127733173600    1.40814985413076    4.99104127742674
H         7.71580979297706    0.99985366320000    4.11256179500308
C         7.49206209150464    1.33631684522403   11.43672322080039
H         7.77928049289435    0.31886506691293   11.65373842802465
C         6.67266946724909    1.60657826574720   10.35767511112784
H         6.31152703265353    0.80753710795381    9.72172500843902
C         3.12380566352899    3.42220008852463   11.24916085576418
H         3.78658455569866    4.23034217178894   11.51904226504366
C         7.94221905237365    2.37345061689259   12.24219361183323
H         8.57996164606277    2.16068090765010   13.08599285318756
C         3.38396157394497    2.03832445827654   11.45588463957510
H         4.24931759349405    1.63715064495905   11.96125088756668
C         7.57385989166933    3.68018445255607   11.96675703981976
H         7.92401916020239    4.48472965812544   12.59495123967003
C         5.87313131533136    1.63471793635180    4.99712869583928
H         5.28256428084390    1.40607610961940    4.12392523708768
C         7.39619347034699    2.22672357955869    7.24293460147637
H         7.99289111757252    2.44863192516695    8.11652832030319
C         7.99893160196199    1.70391162485555    6.11198293813513
H         9.06353498183252    1.52745650106426    6.10821758729552
C         1.21688461387611    2.26309450182400   10.75162056437594
H         0.17692408403689    2.04483444359084   10.57201660975412
C         2.19479635355625    1.33192862355515   11.17832233581170
H         2.02645185824912    0.28141887152816   11.35411497784667
C         1.79252410635508    3.55795474406121   10.81322068088408
H         1.25876458556901    4.48635069102796   10.68651750608944

