93
CSD_code = ERASIB | q = 0 | S = 0 | Stoichiometry = C33H54FeO3P2 | MND = 5
Fe        7.91748748166115    4.57114147248555    2.28898970713173
P         7.91761130914420    4.57113550324312    0.15380853043691
O         6.45188409461006    2.03489490923065    2.28896775564736
C         7.03168508972780    3.03575106842552    2.28898224550730
C         9.12710806855484    3.45703898650956   -0.69207647288086
H         8.86718001929361    3.38769669755807   -1.75485407261027
H        10.10509811729439    3.94501842178464   -0.60388716548925
C         9.18377178342600    2.08234658486862   -0.03458084107456
H         9.26046309338836    2.22175532980449    1.04809555997147
H         8.25742954425670    1.53640699630349   -0.22938678720013
C        10.37363303157404    1.24483816391839   -0.49203797703741
H        11.29087490222249    1.82800977136049   -0.37920599105679
H        10.26605928995033    0.99008064467287   -1.54953197874236
C        10.49046125458565   -0.04019907232665    0.33620099402073
H         9.54231333832356   -0.58087698368681    0.30668869162771
H        11.25689042558389   -0.67768121871909   -0.11624404175489
C        10.87884151865799    0.22926618966762    1.75751706177150
H        11.80806006320812    0.77124859844331    1.88482570310509
C         8.27765408260368    6.17567813974140   -0.69204057477384
H         8.46770230733155    5.98524422429595   -1.75481017522079
H         7.36606783237638    6.77869156161541   -0.60393123868039
C         9.43980165547270    6.91221524500430   -0.03460735236498
H         9.28071508016511    6.90893114945683    1.04806899375622
H        10.37578744539084    6.38297317454620   -0.22938516260374
C         9.57018915168831    8.36142251731031   -0.49205163280417
H         8.60653323502149    8.86419489694095   -0.37920778057410
H         9.84459809816015    8.39565484335956   -1.54953957996496
C        10.62463260525615    9.10511139650633    0.33621144805609
H        11.56695062018417    8.55433323838927    0.30673410706644
H        10.79351425483996   10.08761528214266   -0.11619374302475
C        10.19702494934150    9.30668081744985    1.75751707372590
H         9.26305217215554    9.84043506737785    1.88481374768448
C         6.34794963426352    4.08077506489431   -0.69198384778057
H         6.41783547236407    4.34052920658792   -1.75476845291682
H         6.28155559207040    2.98981992319989   -0.60381656385637
C         5.12902843714597    4.71897955504329   -0.03456027285011
H         5.21138652863511    4.58283275934339    1.04811366844779
H         5.11938456125030    5.79418767355828   -0.22934598398792
C         3.80879703502084    4.10729734918476   -0.49203841102901
H         3.85520883390043    3.02135627042612   -0.37922660472158
H         3.64196965905667    4.32784943603403   -1.54952765571841
C         2.63749272309809    4.64861363048973    0.33619413683006
H         2.64332308441330    5.74007279780432    0.30668892271386
H         1.70219508870751    4.30361017869088   -0.11624076120591
C         2.67666049345163    4.17752893476174    1.75751045507645
H         2.68139240295763    3.10180932987927    1.88482645720239
P         7.91762541754084    4.57117988712263    4.42451123999808
C         6.34796854244808    5.06145824360090    5.27037908998367
H         6.41774933441446    4.80169593283222    6.33316033975351
H         6.28159447394855    6.15241282792156    5.18225187918864
C         5.12899732855480    4.42335729972544    4.61293984325096
H         5.21143882660514    4.55952370944507    3.53027972249910
H         5.11928495655729    3.34814457761817    4.80767823486931
C         3.80872476227480    5.03504220231892    5.07031851284610
H         3.85514698732765    6.12098172397587    4.95750644988750
H         3.64177388568370    4.81451626960788    6.12779215620886
C         2.63745942459721    4.49375072612880    4.24200884473290
H         2.64328406010383    3.40229017767040    4.27146003295152
H         1.70212469834255    4.83872935300181    4.69438400413330
C         2.67666027405081    4.96486343241724    2.82069199064718
H         2.68139351717671    6.04057821182163    2.69336815544690
C         9.12704951590608    5.68530418679657    5.27045494755142
H         8.86715230008721    5.75469680595752    6.33324178535443
H        10.10503577694091    5.19732015518688    5.18227121794636
C         9.18375629071506    7.05996317554712    4.61291453969441
H         9.26048472101465    6.92047312880741    3.53025537950195
H         8.25742010087090    7.60594037986249    4.80763380529875
C        10.37361350573085    7.89750212981759    5.07033230374038
H        11.29087698878521    7.31437104991680    4.95751407374394
H        10.26607809927947    8.15234031419748    6.12779960736053
C        10.49041924473153    9.18248487362141    4.24200512063453
H         9.54225973714530    9.72315171272967    4.27141890657784
H        11.25681565841426    9.82004180229610    4.69440061796332
C        10.87886197894365    8.91300305731569    2.82069974128657
H        11.80812767544831    8.37110184560086    2.69338894909063
C         8.27761194769364    2.96668093267504    5.27046566624286
H         8.46766383631830    3.15705316109649    6.33323894783669
H         7.36600501989614    2.36371144839420    5.18233364638242
C         9.43971875270800    2.23013913408619    4.61297883449663
H         9.28057335383318    2.23348616031449    3.53031784762445
H        10.37572020681852    2.75935591767881    4.80773173814998
C         9.57013683789152    0.78090312607629    5.07034108629759
H         8.60649459084987    0.27809973970773    4.95753546049688
H         9.84462120462546    0.74658065702393    6.12780818513183
C        10.62455805538795    0.03724182100280    4.24201781753823
H        11.56687255194096    0.58802895215599    4.27147576828876
H        10.79347732904263   -0.94526827593755    4.69440041795125
C        10.19699019216907   -0.16439787446153    2.82069953131649
H         9.26305225323396   -0.69820237698767    2.69335846665004
O        10.84676064278409    4.57112262583206    2.28823851854335
C         9.69008770479587    4.57112343440089    2.28819308767404
O         6.45243404586227    7.10772326682847    2.28804530072942
C         7.03138792872257    6.10638322967290    2.28798404865191

