93
CSD_code = ERASOH | q = 0 | S = 0 | Stoichiometry = C33H54FeO3P2 | MND = 5
Fe        1.21260165757573    8.58343484672664   -4.10194861174750
P         1.04172569229491    8.58290820824829   -1.97403582277643
C         2.74240390582255    7.69659097406078   -3.97981698064176
O         3.74006990650087    7.11671188106985   -3.90146785415733
O         1.21229743602559   11.51265754824522   -4.10165514726358
C         1.21260722360968   10.35604233448717   -4.10198410847644
C         0.45360778498042    7.02308964494561   -1.17466119006555
H         0.61035811604106    7.09280259730316   -0.09199875082862
H        -0.62459509340183    6.97201553801521   -1.36740406589857
C         1.13395935079779    5.79250911475280   -1.76541040310486
H         1.12882243575235    5.88515773873455   -2.85591561024310
H         2.17790139705449    5.75240040637500   -1.44516312524913
C         0.43792088668522    4.48671919926941   -1.39544009396316
H        -0.62397732018791    4.56070398357796   -1.64229908661739
H         0.52089230194146    4.31236154863196   -0.31956004519806
C         1.04906055816065    3.30297595329642   -2.15452998232487
H         2.12860930376660    3.28389921742363   -1.99172115109136
H         0.62987902173785    2.37643517335542   -1.74906232763294
C         0.75619288530869    3.34778304772848   -3.62289270546952
H        -0.29578321694740    3.35348706838325   -3.88143842244388
C         2.58095034767307    8.90960759449423   -1.00342057289651
H         2.31433581800861    9.08431687704798    0.04536299777336
H         3.17624646610696    7.99065845692362   -1.06250301289875
C         3.38112191715788   10.07121326395774   -1.58364985882552
H         3.43085593041667    9.94762770159068   -2.66999445350941
H         2.86797814607735   11.01515737878301   -1.38456825614228
C         4.80717930546402   10.14449198884055   -1.04736691292877
H         5.29108679694375    9.17293664794611   -1.17377290531170
H         4.79195903318290   10.37519926066615    0.02097694298666
C         5.62033819173646   11.21106853976922   -1.79045846347384
H         5.08795657074984   12.16383253632699   -1.75769175045433
H         6.57716724506807   11.34095326070078   -1.27451419740456
C         5.90089973823826   10.83295978988749   -3.21246541354134
H         6.43934582740758    9.90197999026408   -3.34233314893213
C        -0.11238780561179    9.81457008337392   -1.21965998234685
H        -0.25909518629947    9.56868034372034   -0.16154637729238
H         0.39482562267137   10.78452897237977   -1.28441068148030
C        -1.43717044589205    9.88249850800569   -1.97228784440890
H        -1.22325309760116    9.91952827306504   -3.04498080220193
H        -2.01987406525263    8.97712665421699   -1.78581672844526
C        -2.27122807495266   11.10731146868051   -1.61102842115277
H        -1.66056389906246   12.00647136727456   -1.72353157411811
H        -2.58977317173163   11.04647942919884   -0.56717708526699
C        -3.50317942185670   11.21973106640417   -2.51694243214356
H        -4.06415769793754   10.28340920365533   -2.48689939439750
H        -4.14949661598709   12.01332879693808   -2.12832972073981
C        -3.14676641589897   11.55458397900761   -3.93279702520589
H        -2.59884776753227   12.48012850909439   -4.06183708586186
P         1.38340819380936    8.58294217073909   -6.22986496561534
C         1.97144653157312    7.02312453974785   -7.02929296936729
H         1.81470322284382    7.09285620446103   -8.11195569346726
H         3.04964440327439    6.97195826536388   -6.83655759765016
C         1.29100278692408    5.79258058763183   -6.43858266782189
H         1.29616894777185    5.88519981488533   -5.34807840605075
H         0.24704636801425    5.75259344968704   -6.75881289416474
C         1.98688717872219    4.48670749589149   -6.80856187433390
H         3.04879829769414    4.56051304998741   -6.56167371277107
H         1.90391259022733    4.31238223910335   -7.88444507781989
C         1.37551739897087    3.30305450080140   -6.04950817876233
H         0.29596232227093    3.28417126438953   -6.21232141776046
H         1.79452998196574    2.37644720136352   -6.45499585145441
C         1.66838246375786    3.34776359326501   -4.58114206595195
H         2.72035830954312    3.35336310608365   -4.32259178187943
C        -0.15580182866177    8.90962261649713   -7.20051453246878
H         0.11074938172084    9.08432745965873   -8.24932107069587
H        -0.75105031094887    7.99064560633369   -7.14139125976736
C        -0.95603306831866   10.07118004741070   -6.62029066418355
H        -1.00576308977624    9.94758362675925   -5.53395090835544
H        -0.44293812605861   11.01516638577021   -6.81935910426375
C        -2.38210616086803   10.14428521452265   -7.15656220057809
H        -2.86593814157844    9.17267774264982   -7.03014073913964
H        -2.36690508287982   10.37497826790509   -8.22490393090238
C        -3.19535594601676   11.21080353128407   -6.41349430688477
H        -2.66307691556860   12.16362946435766   -6.44626249154671
H        -4.15219105783143   11.34058941296165   -6.92945280694139
C        -3.47586568944606   10.83266319451288   -4.99148811771303
H        -4.01434550848451    9.90170204917374   -4.86162488672675
C         2.53752350171530    9.81455039326348   -6.98434081165153
H         2.68426718882652    9.56861154234877   -8.04244275777102
H         2.03028057800747   10.78450011105073   -6.91966212035908
C         3.86229348956769    9.88256848318878   -6.23169712545024
H         3.64833754518643    9.91963717035908   -5.15901333742798
H         4.44504201294274    8.97720443868991   -6.41810453305706
C         4.69628962655728   11.10742210584163   -6.59298100381569
H         4.08557243941302   12.00656890377500   -6.48059474973737
H         5.01490798583513   11.04652933547631   -7.63680889961360
C         5.92819649540483   11.21999637177971   -5.68701424888028
H         6.48929817033260   10.28374638781357   -5.71702310500987
H         6.57441828698229   12.01366086483549   -6.07563429522645
C         5.57177483578121   11.55486223389335   -4.27116242425064
H         5.02373180556394   12.48033611494053   -4.14214173434948
C        -0.31736450029723    7.69688528046424   -4.22397881563693
O        -1.31512443927011    7.11714219223866   -4.30230821690756

