38
CSD_code = ERAYUR | q = 0 | S = 0 | Stoichiometry = C19H12N2O4Ru | MND = 6
Ru        3.41161448956102    6.13986527858167    3.09093706266879
C         3.93879211392527    7.87852186353966    3.45841596738552
O         4.18228635621503    8.97372903267823    3.67794864802367
C         4.89766735014233    5.78897325467245    2.04314207718712
O         5.80554959413577    5.58117647151117    1.37053272871243
C         0.89764608132896    6.93727594858600    1.98320239403223
C         0.59593286256508    6.49727309875066    3.39433054883765
O         1.63979970947062    6.40345672963824    4.14832349185410
O        -0.53543926765930    6.22988155333072    3.76821544687694
C         2.24227024471312    6.93872754221754    1.59619597160411
C         2.54654929464319    7.35480398652134    0.30750756574509
C         1.54130898729062    7.75409434822682   -0.56396724301639
C         0.21401905466828    7.73452634031958   -0.16760113594704
C        -0.11160706816363    7.32294593986151    1.11157724480430
N         3.90818283699099    5.12944676762608    4.88270922642234
C         2.93503314202785    4.23822542254170    5.14864386752969
C         2.67776865032426    3.82173355057345    6.45506530140608
C         3.43582551843008    4.33341711512091    7.49130201630364
C         4.44793393868445    5.23711143049501    7.19911658734299
C         4.64056004578569    5.60950965831048    5.88051020105796
N         2.52345939827856    4.31714068678074    2.80274757518892
C         2.20496537546464    3.73494432296794    3.97586160777761
C         1.25714810338710    2.71393042153579    4.03793430277941
C         0.62704609920065    2.29936679369602    2.88000135709756
C         0.98495922903090    2.88890779533844    1.67648983592254
C         1.93638226381055    3.89297433408285    1.68730917332344
H         3.57730029880045    7.37773406229100   -0.02657524937766
H         1.80063219998712    8.08340019809581   -1.56049964309594
H        -0.56091941625031    8.04465411201319   -0.85367837802084
H        -1.13457007119797    7.29414199498587    1.45798950203717
H         1.87825789264045    3.13061290908466    6.66394481644222
H         3.23917578062949    4.03447817923445    8.50942872866747
H         5.06485431000521    5.65616503238675    7.97735691438678
H         5.41720864626343    6.31331027568822    5.60673657529709
H         0.99942501423780    2.26309023214306    4.98166751922877
H        -0.12931399148890    1.53077877685708    2.91615693637272
H         0.52294281692527    2.59388047507696    0.74869613241818
H         2.23365211519313    4.38809406464074    0.77032432472198

