69
CSD_code = EREDIP | q = 0 | S = 0 | Stoichiometry = C24H34Cl2N6O2Pt | MND = 4
Pt       11.29412135813655    0.72420372774600   18.18591324982146
Cl        9.96385747373836    2.46343974270848   17.44595670150617
Cl       12.63374829213200   -1.02798917323333   18.93070849259513
O        13.10595960952378   -0.21135025718448   14.51813697959607
O        10.14049967148796    0.79894125224163   22.22027535136391
N        11.99276221144757    0.49489247090166   16.31092713721471
N        11.72084335711611   -0.29582278054947   14.13729206366462
N        14.35492937957209    0.63222489577894   16.23594034317057
N        10.56532732360062    0.99123203107028   20.04429008267086
N        10.52974832529620    2.17358508068674   22.05051966206998
N         9.62766248120075   -1.00247335865018   20.91073862800624
C        10.97901270801774    0.08536752652425   15.35111848319506
H        10.30669995173238    0.93327995420540   15.15037476534883
C        13.15230408289233    0.30523546945281   15.76842224396785
C        10.90823344418260    2.27780200877091   20.63112171121809
H        10.33296399249223    3.07024735815742   20.12931741586063
C        10.13992791526613    0.22301158083886   20.99497901284073
C        10.18088364603484   -1.08273660263357   15.88120161748689
C        10.81184860154117   -2.29349011675965   16.14611006420758
H        11.87452704075954   -2.39133498109574   15.98541619120761
C        10.08100586117175   -3.36764450273289   16.61276524714366
H        10.58020185907159   -4.30290818833396   16.82033867279644
C         8.70982659551876   -3.26273192177867   16.81883794336413
C         8.08686582382140   -2.05168765750366   16.54921891857423
H         7.02168200818706   -1.95213001085616   16.70262910112242
C         8.81240608921845   -0.96862844454383   16.08497249091853
H         8.31722532179482   -0.02969857800664   15.88557722109918
C         7.92638928477743   -4.44433829266167   17.30601225568267
H         6.95297951700046   -4.14025253640423   17.68326172545344
H         8.46614593849430   -4.96570163910167   18.09409086077869
H         7.76849609523963   -5.14912065726020   16.48945188253802
C        11.49360113303816    0.58896736956409   13.01565466206815
H        11.64548096725913    1.64693718628686   13.26425534395930
H        10.46762599406278    0.43377267265417   12.69045540860443
H        12.17114184099853    0.30009219949301   12.21453579455342
C        14.52639538066127    1.24036876117444   17.53254785449883
H        13.59476528840587    1.72234543113493   17.84040723754416
H        15.31253464622177    1.99293291358973   17.46443372697884
H        14.79632506789245    0.49662663720308   18.28570670930633
C        15.55355079836315    0.13325902884260   15.60420241552426
H        15.31695155969616   -0.25903849320389   14.61931331882426
H        15.99802212559946   -0.66050447791281   16.21092480059356
H        16.27344579440711    0.94777987037584   15.50705125215747
C        12.38676869664070    2.55340418178843   20.48767246849322
C        12.83306971398423    3.65582242290874   19.77186859890837
H        12.11850527044477    4.30979077878435   19.29407058683876
C        14.18889704643995    3.91185479976646   19.66456446265911
H        14.52472576276772    4.77426281340767   19.10639309505890
C        15.12046225898539    3.07637213003607   20.26537502266874
C        14.66441310844712    1.97384951198283   20.97990127456067
H        15.37773234544177    1.31342868331649   21.45110225686811
C        13.31383360851136    1.71322201298269   21.09525328285687
H        12.97465496496970    0.85696408293203   21.65783256840522
C        16.59016982897164    3.35416715185941   20.16489988839029
H        17.13636467652086    2.44594179867005   19.91670780416503
H        16.96811491338445    3.71708158130336   21.12063753520439
H        16.79540512637027    4.10870436456460   19.40948406429943
C         9.41426602104417    3.01905348576272   22.41689140323552
H         9.76547159664064    4.04719904262329   22.37210925057058
H         9.13170144455457    2.78103736934824   23.44052651231959
H         8.54655284380702    2.89678376731826   21.75638835297943
C         9.51931484223345   -1.69664545073679   19.65119480748690
H         9.53287685086680   -0.97555413554493   18.82976411308411
H         8.57531170487634   -2.24206807211238   19.63251957297150
H        10.34766053661462   -2.39490434344783   19.51202462907565
C         9.42027873151854   -1.80018739979284   22.09616034912888
H        10.17842847908680   -2.58553592256433   22.15983702118216
H         8.43415574964328   -2.26542386525104   22.04782480525574
H         9.48043802012710   -1.17208328900460   22.98029123223505

