101
CSD_code = EREDOU | q = 0 | S = 0 | Stoichiometry = C55H38N6ORu | MND = 6
Ru       10.29607372248768   12.51970967211030    2.35690832213731
O        10.32046276786429   15.00605847283237    1.29639566521826
N         8.52205405369941   11.63236096643032    1.86131274267077
N        10.92550844557246   12.33422372830577    0.43045211115052
N        12.08366713476920   13.34545566205867    2.87137847544631
N         9.68436280972567   12.63628014197859    4.30344272694378
N         9.66340453345970   14.17991505657280    1.95115945847779
N        11.09113522212945   10.61225664821300    2.76798898252006
C         8.14056266237488   11.23326496481834    0.61775944402144
C         8.90770815651243   11.32727026304123   -0.54719002478345
C        10.20723366707615   11.83776939548621   -0.61086759507690
C        11.01072577712813   11.86608183118878   -1.80350714055443
H        10.69981445781689   11.50888687456995   -2.76615818562742
C        12.20276513648021   12.40624000139240   -1.46001552871566
H        13.05601874637955   12.57601699261226   -2.08723788315492
C        12.13421875022943   12.71111864960203   -0.05603401020962
C        13.17292559235374   13.29055649997424    0.67299987850544
C        13.12498861103713   13.58461549327023    2.03556094025309
C        14.18410963606717   14.23368375443728    2.76087982754081
H        15.12096831651436   14.54224188369895    2.33998816051639
C        13.75629869450525   14.37727143082574    4.03621423719973
H        14.28228865211762   14.81059186858962    4.86469673389125
C        12.42758390969395   13.82913335460857    4.09409599591203
C        11.64345520934640   13.78106761208564    5.24974163978277
C        10.36610986594977   13.21791390070975    5.32758523679945
C         9.55259850931961   13.20823888908595    6.51154517127910
H         9.83512725234603   13.62512851415977    7.45869478579191
C         8.38528129391265   12.60678228257971    6.18133342796024
H         7.53149022750861   12.43588744860441    6.80734695613092
C         8.47724573402491   12.24898861011066    4.79320558361897
C         7.44504669043326   11.65189469092539    4.06838719867650
C         7.48226657240336   11.38235394847642    2.70019575919011
C         6.40220410277857   10.78884161004659    1.96177563482922
H         5.46597110842533   10.47627957172089    2.38090237791774
C         6.80445117974175   10.70809836427298    0.67170924078219
H         6.25214615308095   10.33634254761256   -0.16935258519371
C         8.30415239597550   10.84133911014475   -1.80797284512652
C         8.04076541226265   11.72632921368590   -2.84870996067003
H         8.27499968031063   12.77368011240766   -2.72361480804442
C         7.47824103142593   11.27325916287191   -4.02804446815307
H         7.27446349249503   11.97016252407768   -4.82797754703040
C         7.17693351216118    9.93066185298421   -4.18497992693616
H         6.73991072190428    9.57709974327528   -5.10718317108682
C         7.43879518927416    9.04266061155757   -3.15518163897292
H         7.20832260996477    7.99368570570867   -3.27360933109584
C         7.99670077817081    9.49445282582888   -1.97308094055383
H         8.20492034179954    8.80027523855516   -1.17084960898394
C        14.40281639364185   13.65672745266486   -0.06373329142013
C        14.36643980483074   14.66011525336910   -1.02676353316520
H        13.43349611717494   15.16902938708905   -1.21898292152456
C        15.51383231183137   15.00996334475751   -1.71492893649580
H        15.47686633006090   15.79393022956991   -2.45738513927093
C        16.70832784477570   14.35910425918274   -1.45385761395465
H        17.60366665383542   14.63178299310601   -1.99310096094616
C        16.75155489594821   13.35830963362828   -0.49776289591806
H        17.68107984469186   12.84730206171417   -0.29143910124407
C        15.60650217563458   13.01018804851479    0.19610884700989
H        15.63756517556032   12.22706558927871    0.94071706882335
C        12.20485944111509   14.37513550761754    6.48319775345329
C        12.45815739953897   15.74152550118864    6.55274413743362
H        12.23524153034272   16.36391452889447    5.69814844696023
C        12.98034602528481   16.29906776085273    7.70550552075139
H        13.16924506247589   17.36182606166449    7.74958575091591
C        13.26046463886138   15.49916591464717    8.80087714765731
H        13.67015067478808   15.93510951918652    9.70008686297093
C        13.01308897832099   14.13806865891337    8.73916215628945
H        13.23164290691388   13.50943617327149    9.59038256232000
C        12.48638043630342   13.57903847712539    7.58898122846746
H        12.29640411915994   12.51588799650819    7.53985247014233
C         6.20778488592294   11.30878791271600    4.80352746018960
C         6.22013013254817   10.33064299286026    5.79256325896522
H         7.14372115739481    9.81509931951622    6.01477850478675
C         5.06190942593672   10.01292471873277    6.47887422954596
H         5.08217892867703    9.24845463709427    7.24218484364153
C         3.87900566062507   10.67215165457130    6.18983299935844
H         2.97548523558075   10.42519259823274    6.72765494441375
C         3.85956515124539   11.64997661901810    5.20910494696429
H         2.93956920764416   12.16915169153567    4.98231798738752
C         5.01500265149085   11.96537110605254    4.51773962564426
H         5.00786244813091   12.73260997397310    3.75740390863751
C         8.34763381487776   14.57464491264129    2.34094173862962
C         7.28305724961079   14.38060818360518    1.46649252591615
H         7.46885547796996   13.96852755320957    0.48472954026474
C         6.00074937178441   14.71126090163298    1.86484988552950
H         5.17443506275209   14.54979874357620    1.18820476045416
C         5.77756964479467   15.24899635764870    3.12190154525776
H         4.77470802002740   15.50458665433434    3.43126393655828
C         6.84313120721993   15.47403268973000    3.97747751115991
H         6.67389038015476   15.90909094514473    4.95107006742973
C         8.12971497549969   15.14727911886214    3.58969654805657
H         8.96817746643633   15.33579339917364    4.24493890139824
C        10.92139381174348    9.58519163372739    1.92741892554539
H        10.31266453793484    9.76736134162789    1.05070493206884
C        11.47859520832204    8.33643830631183    2.13299218972091
H        11.30547266634670    7.54862317386702    1.41661944913581
C        12.25415955262648    8.11749263247036    3.26117296110483
H        12.70360669260198    7.15498319502340    3.45106681639287
C        12.43169851539712    9.17707204772914    4.13776244061110
H        13.02436711227745    9.06458884483134    5.03221683372411
C        11.83861532691173   10.39394386064510    3.85633145848960
H        11.96928173741651   11.22850022904947    4.53397924856102

