91
CSD_code = EREDUB | q = 0 | S = 0 | Stoichiometry = C36H42Cl2N6O4Pt | MND = 4
Pt        2.89144872384355   11.16303362762990    9.82464213844300
Cl        4.44052872224466   12.15416049940829    8.40846144462917
O         4.94171990220370   11.63718752890512   13.43872739132867
O         4.75823075536334    5.39210652451294    9.88248254222317
N         4.13681746910273   11.53153154267641   11.36659617276036
N         5.96217466980528   10.95533814485793   12.68992587017517
N         3.02033674600228   12.79993847091126   13.02349625132965
C         5.40568156779212   10.82258109183716   11.33162566137569
H         6.06355798258135   11.30135437014200   10.58896714333558
C         3.96463824145477   11.97925382209320   12.56997849857998
C         5.22185288114615    9.36804991625035   10.97156824258778
C         5.99410861618917    8.78513725218999    9.97297791812219
H         6.72459460398368    9.37996559914429    9.44533821438887
C         5.82156876322250    7.45847816607948    9.64238809169292
H         6.41214797621596    6.99520070987235    8.86789153227273
C         4.86741739773994    6.68317069927574   10.30376754024271
C         4.11182582211227    7.25666403169549   11.32059643636130
H         3.37265855535159    6.68622205281971   11.85919361334185
C         4.29719498629409    8.58696492917062   11.65221576291170
H         3.70995559672995    9.01620961058772   12.44974264194590
C         3.81081425711529    4.56075823303518   10.50922672944569
H         4.03026259898275    4.43289267229969   11.57392914884765
H         3.88747145323680    3.59679629763926   10.00835240537686
H         2.79476426450891    4.95049380014944   10.39225275606673
C         7.18133537602225   11.74761811635253   12.75028989619465
H         7.04721018137101   12.74114200670059   12.29464356882063
H         7.92233685702418   11.18889687904520   12.17190487906218
C         7.62626069880337   11.87566418952500   14.18086308469535
C         7.83241767233685   10.72934514890974   14.93847159627212
H         7.67220912000190    9.76463286598531   14.48163964366360
C         8.22514801822151   10.82823724810397   16.26012329972935
H         8.38315924281305    9.93281172702050   16.84317444383847
C         8.41810778669605   12.07301977168092   16.83729390746315
H         8.72766024813391   12.15008582534042   17.86918242954092
C         8.21010498654478   13.21763055989648   16.08855269731608
H         8.35510327244440   14.19079189421011   16.53454352751312
C         7.81115709079737   13.11902832888737   14.76618825504698
H         7.64544588072467   14.01620973389145   14.18614603956738
C         1.95610749200028   13.27336259842461   12.17188126640897
H         2.26979583889893   13.21949122950506   11.12550670282578
H         1.73895000420929   14.31146972038868   12.42524296423722
H         1.05448248342963   12.66971611380067   12.29747644560601
C         2.84571805434077   13.00593794061489   14.44210219633564
H         3.73751531842622   12.68566021170706   14.97415352423683
H         1.98515265954039   12.43753198582841   14.80529538794720
H         2.67225471163180   14.06665762602369   14.62941078118139
Cl        1.34241883491424   10.17183141095909   11.24084347230797
O         0.84112088558258   10.68891273002158    6.21057564326530
O         1.02466772579698   16.93402186799362    9.76675461873014
N         1.64608519966343   10.79458614041689    8.28268166871094
N        -0.17928750832190   11.37081630452393    6.95939505143299
N         2.76253346199202    9.52619242866676    6.62574878850420
C         0.37722118086126   11.50353096214627    8.31769060515103
H        -0.28064032717317   11.02473921339667    9.06035113976430
C         1.81823181953648   10.34686320467852    7.07929630845125
C         0.56105420279765   12.95805740706305    8.67775543915614
C        -0.21118417804789   13.54097620450598    9.67635352998921
H        -0.94164391046822   12.94614687717541   10.20402902271632
C        -0.03864938053970   14.86764394175393   10.00691463193122
H        -0.62920429978228   15.33092367369510   10.78142847209766
C         0.91546674251572   15.64295320788243    9.34548729970260
C         1.67102486928333   15.06945584032266    8.32863515521676
H         2.41014921440346   15.63990337530187    7.78998563650370
C         1.48567410549201   13.73914424929352    7.99705767232510
H         2.07288417015381   13.30989293893942    7.19951303164139
C         1.97194612121779   17.76540579899206    9.13984813540564
H         1.75227262892720   17.89329736750079    8.07519487804691
H         1.89537678255930   18.72935010473152    9.64076896734341
H         2.98802745059125   17.37568724616236    9.25659887603063
C        -1.39850452656010   10.57863261571050    6.89902840285856
H        -1.26446337233408    9.58508981451290    7.35465934810460
H        -2.13945169514385   11.13740406449096    7.47743518990706
C        -1.84348316486044   10.45064930078255    5.46846611479217
C        -2.04921136465164   11.59699502458437    4.71077615365155
H        -1.88865349995719   12.56167848951758    5.16754617451701
C        -2.44194414608116   11.49815675910700    3.38912259311331
H        -2.59967126306340   12.39359484363743    2.80602301971565
C        -2.63534133755432   10.25340613674434    2.81203310543876
H        -2.94496942119455   10.17637901016808    1.78016277748382
C        -2.42779072409558    9.10876699826441    3.56086380994129
H        -2.57314490465225    8.13562765377236    3.11494209863358
C        -2.02883721943253    9.20731175169077    4.88322993719858
H        -1.86340800804155    8.31011676030305    5.46332134777055
C         3.82676296635078    9.05274165664422    7.47735119545801
H         3.51306922399095    9.10656108888808    8.52372605365973
H         4.04392883310994    8.01464706956343    7.22394304752645
H         4.72838694616827    9.65639644970054    7.35178798461452
C         2.93716014150701    9.32028552006335    5.20712907287120
H         2.04527621492307    9.64038140790907    4.67511621570780
H         3.79758243232038    9.88889791542490    4.84392398202500
H         3.11085654966135    8.25961585736495    5.01977364529660

