83
CSD_code = EREDOV | q = 0 | S = 0 | Stoichiometry = C30H42Cl2N6O2Pt | MND = 4
Pt        4.29118669878267    8.45028687994080    3.32766159442977
Cl        2.72429330695145   10.14886664631733    3.07770694864045
Cl        5.80979459967220    6.70342756707733    3.63254881454990
O         6.90314638625798   10.84032047712557    5.58944097863228
O         1.33019694410622    6.17938383720130    1.38991231413938
N         5.56413387398138    9.74786517786562    4.19111001336764
N         7.20469107473336   11.39140149014623    4.30100143584735
N         5.74732100519590    9.06545521176308    6.45753348839093
N         2.91769703834109    7.20434567174629    2.56019732834322
N         0.86591078202403    6.12902875107252    2.74570300393840
N         3.03259684690425    7.13564151382354    0.19496934514555
C         6.09419863541883   10.89358102773014    3.46223756718504
H         5.32417712286172   11.68582165238328    3.46011040856946
C         6.01662279131754    9.82968573878066    5.40258640101417
C         2.01950955734293    6.59716228948345    3.53275063327903
H         1.69318077504397    7.35073957958521    4.26456601791334
C         2.47603961697241    6.90393411728574    1.38247269868739
C         6.48831751495379   10.59537275932301    2.04233896849910
C         7.00389944683319    9.35944909928773    1.67148390498314
H         7.11147252494112    8.56684826069879    2.39831613901541
C         7.38214504920317    9.13043188691014    0.35880908688978
H         7.77603379362428    8.16193287424995    0.08773313657548
C         7.26322556186259   10.12113288989704   -0.60441835290844
C         6.75451190728578   11.35920590070157   -0.22217199634601
H         6.65488014592522   12.14320459209456   -0.95954874917167
C         6.36970129223301   11.59472572593694    1.08296794463399
H         5.97057265222458   12.55784842625718    1.36410743156038
C         7.66808657542003    9.87890546546245   -2.02674664112080
H         6.86167262312702   10.15307349028488   -2.70538948663925
H         7.92216193942155    8.83423288956794   -2.18642588410783
H         8.53566409013507   10.48732326553864   -2.28091750343934
C         8.53538954151639   10.95069835539721    3.92715335766266
H         9.22048955522591   11.32101749852251    4.68812663173998
H         8.77834003227104   11.40662318643826    2.97112591166798
H         8.62699666667723    9.86200001188234    3.85106297123630
C         6.35644520464710    9.34730197525354    7.74184845179278
H         7.26996926752360    9.92060803751771    7.58794717885633
H         6.61014969364588    8.38632958959239    8.20127518839304
C         5.37684303982044   10.10885035801001    8.63500716464290
H         5.15709472140713   11.07557759516692    8.17785576343116
H         5.83449581356816   10.28787543234513    9.60864413391468
C         4.08827134534937    9.30386352875588    8.78720455211476
H         3.36436270257250    9.86431407015155    9.38097780402682
H         4.30431969252123    8.37042276082928    9.31273804950271
C         3.50591584066879    8.98737421338365    7.41176714944310
H         2.61890692103602    8.36099435750987    7.51191195241041
H         3.21180903918629    9.91256467356349    6.91157433094342
C         4.54247544652294    8.26614038898911    6.55070928363612
H         4.81135292180687    7.30121169001039    6.98953962567050
H         4.15156445271315    8.08877121925488    5.53719404557165
C         2.69603115713113    5.44994361740486    4.24557862630963
C         2.72865668770500    5.40646433439835    5.63061791289276
H         2.24360903459683    6.18519906497570    6.20220019772128
C         3.38227395227192    4.37728635494264    6.28317788897818
H         3.40669534168851    4.36121635693398    7.36404369645003
C         4.01239086251737    3.36950401530487    5.56722657468126
C         3.96137253013146    3.41068861286019    4.17881835632829
H         4.44869143868895    2.63488614399193    3.60635170354644
C         3.31224295055980    4.43663604264117    3.52279056539852
H         3.29563392357676    4.45897379144873    2.44317955422101
C         4.75297582737723    2.26967757586125    6.26453276693614
H         5.82653923849717    2.44328155748891    6.18956842208991
H         4.53812493634645    1.30786840128510    5.80294006198025
H         4.48584381888292    2.22359127503067    7.31753858561856
C        -0.28849410920045    7.00022859860142    2.86071964801007
H        -0.04089184558493    8.05682448328839    2.70011628291194
H        -0.69552265126578    6.86657951522180    3.86007666197012
H        -1.02634438732436    6.67972605746328    2.12777697742553
C         2.27146362336005    6.93012127022593   -1.02177999414785
H         1.48289239691203    6.20270008728963   -0.83105937699250
H         2.95634452386144    6.52321067205252   -1.77263978329533
C         1.69486851404518    8.25963725905793   -1.51013824660411
H         0.99700829727310    8.64221450715914   -0.76272901797897
H         1.14721923644489    8.10038445957545   -2.44004920269624
C         2.82517072298669    9.26609080666513   -1.71314288957750
H         2.41583473636443   10.23064210622359   -2.01658625658655
H         3.48467582951865    8.91366924512206   -2.51074478314684
C         3.62493159445351    9.42125476335166   -0.42223679305965
H         4.47160228565320   10.08989262276600   -0.57183352089246
H         2.99517142087242    9.84784866270571    0.36087773706527
C         4.13793951401459    8.06049872062579    0.04578448331317
H         4.82986002305297    7.63794793153948   -0.68889031922322
H         4.65765450273428    8.15443698841243    1.00880294319883

