24
CSD_code = EREFIR | q = 0 | S = 0 | Stoichiometry = C8H6MnNO6S2 | MND = 6
Mn        4.33082677296500    3.97411715577654    4.63463334099162
S         4.10181181025041    2.44045718659477    2.66613878270196
S         2.89275415340480    5.07713710808334    2.90524948812372
N         2.61642531280369    3.52920580764436    0.75791732188556
O         1.76982297937085    2.72778853684346    5.35808350228321
O         6.03683433393087    2.15636735201365    6.19619371627355
O         4.18158708118359    6.19209693901013    6.56131870431326
O         6.47275113291304    5.11031628569524    2.98025686471977
O         0.80246104056062    1.54402476118618    1.33092540934337
O         1.87315412244667    0.07174787417363    0.03195677954637
H         1.21669811672653   -0.56462725837001    0.35966848560985
C         2.77631028283165    3.21187273218025    5.14876834865638
C         5.37449721557071    2.87984322865213    5.60592818526129
C         4.25257084843301    5.31690838001668    5.82683334317214
C         5.68606962611702    4.68441664474614    3.68363376172215
C         3.12641399161292    3.66380113980605    1.98346741224655
C         2.73108501009089    2.26819692814315    0.07050520222076
H         3.72241515779642    1.83433013532607    0.23273052665311
H         2.58935390640829    2.42097674948810   -1.00170887556653
C         1.68429677853590    1.27299966472709    0.56822184596284
C         1.67375087677698    4.48044483869838    0.21716240656522
H         1.78659063095646    5.43546327731172    0.72583063216865
H         0.65141670333092    4.12191872240257    0.35785589472392
H         1.86970211496402    4.61559580982902   -0.84637107957795

