85
CSD_code = EREHEO | q = 0 | S = 0 | Stoichiometry = C43H38FeNPSi | MND = 8
Fe        6.04237382902604   -4.24972761360829   12.32909531198988
P         6.39067222535632   -2.61830420668739   13.67633624935981
Si        6.09360049954112   -1.11431192204448    8.98059111884524
N         6.02488765294781   -2.50463032575979    9.98540224319294
C         5.98105964257750   -3.17235817227617   10.96992690313851
C         4.06043810921559   -4.07156022722676   12.44466402925035
C         5.79825411068626   -6.44729943440204   12.58298990845376
C         6.38453944924597   -6.14853757177500   11.33247942873787
C         7.62919891197176   -5.51294286326917   11.57536094804716
C         7.77785385331322   -5.37156860902349   12.96588713517147
C         6.63428465049185   -5.94783490400799   13.59150987966576
C         6.66353398108290   -3.18958418252887   15.38776745006201
C         5.55015083986109   -3.69498092634833   16.05724144234687
C         5.68237469411607   -4.25628234704762   17.31179496793272
C         6.93447326668549   -4.33748629587980   17.90357777374076
C         8.04785915966017   -3.86008641687244   17.23348857781441
C         7.91712873178848   -3.29209910182075   15.97734569092945
C         7.90797511402234   -1.64118292163608   13.34965336319553
C         8.69403132505034   -1.97510632919634   12.25454855729734
C         9.85864291627233   -1.27731428910355   11.99089788007559
C        10.24428564964988   -0.23852486251308   12.82051954665069
C         9.45782422237796    0.10830704283512   13.90777584430813
C         8.29196935778925   -0.58568712850711   14.17172696988652
C         5.24505001730251   -1.21276085086770   13.94105513339353
C         4.96757610906609   -0.64619084780501   15.18044063691437
C         4.13243187783874    0.45467446899592   15.26848450399642
C         3.57181430786623    1.00142279369564   14.12659373776746
C         3.84356500274762    0.44184782522915   12.88810876728366
C         4.67419543572541   -0.65934207107591   12.79844071259330
C         7.46227759260071    0.05922414178673    9.56370170692937
C         7.28985682255140    0.84219232456270   10.70176877023623
C         8.26872809570074    1.72685574995185   11.11348625130886
C         9.44527248324385    1.84386224236354   10.39286967330564
C         9.63847807386392    1.06464900064133    9.26521730042549
C         8.65449069319591    0.18205552917331    8.85755327441909
C         6.44480516664595   -1.74464186545659    7.23667173411107
C         6.75731758224771   -3.07916717782376    6.99981686672130
C         7.03319586438749   -3.53053582949400    5.72179324342121
C         7.00048414323540   -2.64973637564852    4.65391526563669
C         6.68871119310368   -1.31789530278069    4.87192019294557
C         6.41412819575467   -0.87338363001643    6.15215467013861
C         4.42198990027709   -0.23760074659496    9.12466385400903
C         4.30488404977510    1.12874253919433    8.88887672863073
C         3.08562348137300    1.77118494213450    9.00832889482829
C         1.95755525696979    1.05375336497622    9.37035573954018
C         2.05751477678589   -0.30652285535412    9.61188209715487
C         3.27876537883664   -0.94365567433391    9.48768275433336
H         3.62355196224808   -3.07634466345079   12.45147850402240
H         3.62417630161463   -4.61633089903906   11.60895381298683
H         3.75511846938002   -4.56827651192782   13.36587587366505
H         4.88532027551178   -6.99899725382109   12.73294017043987
H         6.02448865893136   -6.47916148383837   10.37220364159755
H         8.36271346025558   -5.26319492307062   10.82665689198341
H         8.65661675530399   -5.01529789429143   13.48013356929766
H         6.51140258705149   -6.09554634577392   14.65175140396233
H         4.58432221156462   -3.63992215599675   15.57260212807580
H         4.81427494599830   -4.63869437359676   17.82927927132871
H         7.04156153545734   -4.77991147403953   18.88311679885204
H         9.02475136864351   -3.93433318862160   17.68953184874728
H         8.79001246667164   -2.92549714639044   15.45491093414778
H         8.37320114185709   -2.78577552485831   11.61594365160594
H        10.46462677622568   -1.54044381524985   11.13661960299989
H        11.15585989317906    0.30443207478444   12.61931232742690
H         9.75667363634443    0.92263173664635   14.55230930195344
H         7.67785015481395   -0.31473962053949   15.01969614567987
H         5.39564683672029   -1.06540029458010   16.08049516759310
H         3.91988466608859    0.88821818156157   16.23537960557485
H         2.92134622422380    1.86040497574387   14.20185869646340
H         3.40624306559463    0.85946076167538   11.99285490456606
H         4.88326853074040   -1.11447704082238   11.84205125361760
H         6.37439304187946    0.76214517689127   11.27000228750309
H         8.11187599820026    2.32894849604845   11.99703299665977
H        10.20799910138112    2.54143305556975   10.70805819326774
H        10.55558948983811    1.15007812818931    8.69924598011866
H         8.80745659465211   -0.41783338143306    7.97096761649188
H         6.78090715955534   -3.76694028172144    7.83262731899983
H         7.27434748605585   -4.57104184007547    5.55590390620419
H         7.21566746888205   -2.99944703615407    3.65436200526713
H         6.66013211464408   -0.62688415158010    4.04118311160958
H         6.17049338990302    0.16732308401680    6.31516187313935
H         5.18312103036749    1.69850303866305    8.61723415109336
H         3.01430875342058    2.83387327377876    8.82306666862328
H         1.00493776224586    1.55461089913002    9.46832974631838
H         1.18195862412630   -0.86988982172340    9.90085677896127
H         3.35457636671920   -2.00280984686367    9.68584812909356

