56
CSD_code = ERELES | q = 0 | S = 0 | Stoichiometry = C20H33IrSi2 | MND = 9
Ir       -0.18975554901158    7.83941859771806    2.53442603552707
Si       -1.34812538205108    9.89103178198759    3.17847948795783
Si        1.86043921608169    8.90348326901460    3.29735391822987
C         1.35277079679476   10.65782934013220    3.92277133160804
C         0.01369677043293   11.06948518298706    3.87344492872314
C        -0.31695210711170   12.33927281747091    4.33203806565216
H        -1.34744239205777   12.66241380309073    4.29678634025622
C         0.64352701288748   13.20075529953414    4.83345219907907
H         0.36344695220922   14.18402500722093    5.18472720108599
C         1.96486769064569   12.79456944449750    4.88184910116865
H         2.72425663528684   13.45825993890224    5.27110252238135
C         2.30737895876929   11.53238374533030    4.42835143978685
H         3.34133098478345   11.22091631271727    4.46876695451542
C        -2.70480143767078    9.69847656410713    4.53896108706724
H        -3.15613106327436   10.65826069252961    4.76801729326409
H        -2.29383360948122    9.29655152012567    5.45807912041499
H        -3.49767020602367    9.03539639899056    4.20965608409617
C        -2.25282679932255   10.82371969951174    1.74996486215810
H        -3.02898484719974   10.20676390598281    1.30983491189789
H        -1.56550981914833   11.10837106698471    0.96139262775163
H        -2.72543215642308   11.72709976694914    2.12126740832726
C         2.77808052399170    8.01091507649627    4.74314586127427
H         3.64821569763907    8.58035253061263    5.05277745549995
H         3.12441730902255    7.02894068976170    4.43822983756199
H         2.13695981926213    7.88639274008240    5.60838586523573
C         3.22700021199910    9.13302444614312    1.95251564929771
H         2.86279475693803    9.70217356261283    1.10480245643438
H         3.57872604217230    8.17408107215946    1.58658460565087
H         4.08325702011604    9.65802638416208    2.36288446956297
C        -1.50084964347984    6.66440628346393    1.07504487167993
C        -1.71009341823575    6.13948975774106    2.35795932073455
C        -0.44630745592095    5.62581139789685    2.83659491696293
C         0.51243979061499    5.76541236798376    1.80127812443357
C        -0.10504250485209    6.48200204769950    0.74496486642479
C        -2.54693304236713    7.15008107161987    0.12206058161634
H        -2.84873384985671    6.33990930494759   -0.54703896935625
H        -2.17524540670100    7.97050643168490   -0.48975380708549
H        -3.43145182266002    7.49771265880412    0.65279620605618
C        -3.02408132129972    5.95390865301528    3.04887588957429
H        -3.76073100311857    6.67179284394604    2.69255274278388
H        -2.92567296621533    6.07684285128948    4.12625349169850
H        -3.40901063425288    4.94873434967097    2.85756189090312
C        -0.28071842669062    4.76170654779085    4.04777684280113
H        -0.45829316372893    3.71651985605265    3.78092738206997
H        -0.98585807180130    5.03500423951945    4.83019717204084
H         0.72635196860831    4.83973998877557    4.45431279388205
C         1.88048367618532    5.16067141972016    1.77933545650898
H         2.30678145764686    5.11204337812121    2.77992847565423
H         2.55592295373837    5.73606063701990    1.14878635337919
H         1.83412251602039    4.14261380188092    1.38309681772744
C         0.47944593258961    6.67489205167487   -0.61977731402198
H         1.54415727658029    6.89639793112319   -0.56633074516342
H        -0.01095391649679    7.48888804780159   -1.14990776191964
H         0.35212854364136    5.76195461698295   -1.20741659121480
H        -0.28178423961041    7.81549123458151    4.07837289507546
H         0.14682574140558    8.88541557137625    1.44609897528766

