112
CSD_code = ERELUI | q = 0 | S = 0 | Stoichiometry = C42H55B10P2ReSi2 | MND = 7
Re       26.75360118818839    0.84197800951024   23.08858864363436
P        28.21993995265889   -1.07712639487528   23.55936587620126
P        26.17131239862639    1.26796448962400   25.64887430020502
Si       25.04324582866827    0.22416317919458   21.17308641857723
Si       28.03837791620319    1.73912080859335   20.98156098687134
C        25.50877700222042    1.03684654785635   19.50370472833587
C        26.93244072672050    1.76670992519086   19.40207817283892
C        24.81964488619521   -1.65846157925614   20.82181022422036
H        24.58127925328072   -2.20209492024666   21.73183741066371
H        25.71097201523323   -2.11072361387776   20.39954441711204
H        24.00585265836623   -1.81942326286796   20.12185525055986
C        23.26899549304737    0.82728428491801   21.62396577433262
H        22.54753433959793    0.46794110130696   20.89659593585545
H        23.20937865198578    1.91071649026495   21.64563072918682
H        22.96223358136294    0.46431134109872   22.60089102893164
C        28.55830250679939    3.57874971320102   21.26090882700185
H        29.26237601277760    3.65703486050111   22.08397636234955
H        27.70351957673638    4.19951886959523   21.50831127646018
H        29.03472559064032    3.99499106999757   20.37893465595122
C        29.71361181163595    0.95700205756467   20.39759848668015
H        30.32282820823418    1.72801250523247   19.93665492710644
H        29.57189846622573    0.17891008668662   19.65553604352569
H        30.28957662608481    0.54319585077341   21.21980876681580
C        27.95751978031709   -2.52049254627714   22.45907026018075
C        27.29743594052519   -3.68669512731871   22.82337461885471
H        26.93174312217920   -3.82190528889852   23.83144187116475
C        27.11101679033765   -4.69535805747716   21.89262024414804
H        26.59603711660170   -5.59906783130308   22.18510110900213
C        27.57816751232698   -4.55242782749509   20.59780151466721
H        27.42549770538125   -5.34141067400659   19.87682782444412
C        28.24068365034132   -3.39181659831996   20.22955418787485
H        28.60526828066443   -3.27011259808733   19.22024737678995
C        28.42399742079191   -2.38190372247689   21.15356959958277
H        28.93338877733072   -1.47168179742074   20.87422350802336
C        30.04782028886349   -0.99624274313558   23.52361178410241
C        30.67892432150714    0.23024322658696   23.69040171654669
H        30.07953669036418    1.12563596145623   23.78555463184835
C        32.06018907140693    0.31116690054023   23.70894587404570
H        32.54119191501833    1.26967269875935   23.83749796176783
C        32.82122754098662   -0.83435910957304   23.55129339484517
H        33.89939103924122   -0.77393158698764   23.56018915200436
C        32.19797323133798   -2.06022509754738   23.37583992491337
H        32.79016272988024   -2.95482063811564   23.24930770434993
C        30.81858999651065   -2.14505996742211   23.36419088990984
H        30.33654475844167   -3.10442356502554   23.23426119704992
C        27.95833481280306   -1.85445465492075   25.19787844469788
C        29.00183638291523   -2.15960739937913   26.06452928839490
H        30.01805029798543   -1.89415839767727   25.81267592706320
C        28.74579122957262   -2.80644664698396   27.26028516157012
H        29.56721243299351   -3.04540282268268   27.91987847427102
C        27.45183389986111   -3.14937771811079   27.61275915484847
H        27.26035591407416   -3.66159881241713   28.54402011559111
C        26.40278200351558   -2.82043207199980   26.77138732186824
H        25.38577142758146   -3.06657564329844   27.04253986776068
C        26.65646899842900   -2.17629164514751   25.57580189731066
H        25.83193307762140   -1.92432134778932   24.92269731021047
C        25.96057130118970    3.06151357302373   25.95702913039743
C        24.90482064709073    3.66988331121836   25.28107694849099
H        24.29126886740916    3.07466280498890   24.61565948044977
C        24.65160265076061    5.01641642323023   25.44920281073792
H        23.83353372604801    5.48136661729820   24.91929003757757
C        25.45086737318204    5.77020427696865   26.29473547704227
H        25.25692242256662    6.82443498748256   26.42600081814742
C        26.49931348000086    5.16955186883316   26.96876176613200
H        27.12357725861699    5.75355290473059   27.62976584654658
C        26.75752494292428    3.81876575985599   26.80416282143090
H        27.57878716917392    3.36364699266078   27.33972045659154
C        27.42859076897359    0.82700665738049   26.89494932415458
C        28.73100147162159    1.24807745745898   26.63284560100210
H        28.92668798827829    1.81359802869116   25.73112177571256
C        29.75630001117443    0.95784550581404   27.51048925643400
H        30.76144351629482    1.29090714563000   27.29515610422053
C        29.49007835428687    0.24141489565975   28.66635024434244
H        30.28690887341506    0.01637185370881   29.35983410795133
C        28.20123613577518   -0.19079953287455   28.92637114684147
H        27.99152726623007   -0.75487654732643   29.82365391856438
C        27.17267852696754    0.08999259955262   28.04365469361915
H        26.17541754295294   -0.26850460086399   28.25344617571750
C        24.60201217512985    0.73191268291553   26.42300902513444
C        24.24106874960723    1.22200387775197   27.67665044477376
H        24.89644032657102    1.91047057944216   28.19307780210363
C        23.04667717527720    0.83571142089004   28.25294670220975
H        22.77416195588146    1.21484071770278   29.22726125565660
C        22.19519408664783   -0.02992022306468   27.58277279041147
H        21.26209343282368   -0.32848586176757   28.03741174644816
C        22.53587377628683   -0.49767013620674   26.32608204053810
H        21.86690912172331   -1.15728914783150   25.79233141621811
C        23.73392651183253   -0.11405027576374   25.74842317016758
H        23.99048143081093   -0.45842011868126   24.75554970422645
B        26.72782663123114    0.28735026760762   18.56736856115080
H        27.24597737460468   -0.66475264684446   19.02732925530322
B        25.06346902142826    0.31778375190515   18.01203543553978
H        24.43221119681094   -0.67470609797382   18.03697466787974
B        24.32796617169521    1.82432459171167   18.54041812726487
H        23.21184399825988    1.82079222185873   18.90857473336802
B        25.52655216498919    2.74513172535642   19.43776156484827
H        25.30357591311601    3.31809723268872   20.43965779952240
B        27.58935006870249    1.62142047424983   17.82373673882843
H        28.75807866615955    1.56176269403341   17.70939993568519
B        26.39214147297395    0.69153788728781   16.89176397469684
H        26.69901239130193   -0.03301695469594   16.01466199438713
B        24.88721747349848    1.65827308362762   16.86641733049076
H        24.13027481234004    1.60236301856637   15.96517153286844
B        25.17448478192673    3.17750109161953   17.76746943827564
H        24.63271154214329    4.18749410998526   17.49715754940065
B        26.85030312257787    3.12533732014370   18.35076613612413
H        27.53071983699925    4.05564596665575   18.57415742799074
B        26.46461373877736    2.47188816266100   16.74796944039035
H        26.83425423821488    2.99844248653830   15.76100983830928
H        27.88733597133835    1.91762966128978   23.61744229637671
H        25.85878862388012    2.21971502135355   22.93303219297643
H        25.69558890030807   -0.43678983805652   23.35873143526383

