66
CSD_code = EREQUO | q = 0 | S = 0 | Stoichiometry = C29H28Br2MoN4O2 | MND = 6
Mo        7.62807528754704    3.39281422818701    2.44780969315612
Br        8.87269836168506    3.24841517584779    0.15812617986497
Br        7.02198800152127    3.10140602237397    4.93701592541898
O         9.53279190113921    3.38804374982710    3.15432468444211
O         7.88747644423615    1.43659650173907    2.47003981787259
N         7.86689968368009    5.27617239319457    2.52016720885355
N         7.22908524872752    6.41620049530342    2.11833382451290
N         6.04375486193508    3.31672273243549    1.73560278898815
N         4.91238849968802    3.04959623691694    1.16314607126405
C         5.82967560664680    6.46637114790687    2.10792634917157
C         5.16487406843435    7.17571202026386    1.10718228281617
C         3.78597114908481    7.24811465455549    1.11045534854607
C         3.05166237287681    6.59678351737899    2.08747446029609
C         3.70901236185257    5.89425059193367    3.08410690889687
C         5.08963107193527    5.83732961616275    3.10908677536011
C         8.01054736904823    7.50061787471143    1.70083802258813
C         7.60073269717356    8.81159941519691    1.94888654590222
C         8.40589070352071    9.86641765370448    1.56909496798504
C         9.62668963519383    9.63522467230905    0.95284788634847
C        10.03727705066680    8.33561682249803    0.71022200974250
C         9.23792240147604    7.26927088111276    1.07796422737443
C         4.38321222295036    3.90594334313562    0.17807348156029
C         3.00345985299354    4.02711024828100    0.03050598368450
C         2.49095131013055    4.85139501409304   -0.95179423631283
C         3.34020230597789    5.56321769763059   -1.78428406606453
C         4.71119590864022    5.45697609937164   -1.62222991605306
C         5.23714275703104    4.63674073920569   -0.64238100277385
C         4.35210124154658    1.77313530994848    1.38685600953909
C         4.48685019965084    1.17980647280858    2.63972125991296
C         3.99124172151526   -0.09221340158859    2.85618670241212
C         3.35757241866024   -0.78010431625944    1.83440927123650
C         3.22478088590628   -0.18862029588560    0.58824072441433
C         3.72310704745766    1.07909566498184    0.35549653240851
C        11.81787011258131    2.90326335570233    3.59026946293005
C        10.41464720809321    2.48806220915878    3.23621855283871
C        10.14444609307633    1.12960424477818    3.01018621482454
C         8.87718979497653    0.66374372562012    2.66409572387235
C         8.64180950932856   -0.81438139432351    2.49978874737455
H         8.77633346083131    5.57154891216181    2.90591100178302
H         5.73376226684358    7.66467209602008    0.33112650654296
H         3.28225020477862    7.80418279193058    0.33465291543323
H         1.97378373095922    6.64413155704066    2.07641177322597
H         3.14715907594836    5.39882596801112    3.86130917046601
H         5.59116969599406    5.33283679077639    3.92221564167723
H         6.65863460346528    8.99054908978842    2.44438088836327
H         8.08317684234467   10.87783108770972    1.76565020005016
H        10.25189221617252   10.46506930396501    0.66154319070820
H        10.98081070347846    8.14575467886506    0.22152776909295
H         9.54932474777124    6.25867753369173    0.84749550028847
H         2.34453740831530    3.47466109392420    0.68330693905833
H         1.42092025558448    4.94019213704921   -1.06664651052790
H         2.93320371668098    6.19849683980550   -2.55630698497131
H         5.37896810400994    6.00637293778665   -2.26822004144311
H         6.30723276843566    4.54106785169089   -0.52364830196418
H         4.96283022940672    1.72264433761155    3.44372028967613
H         4.09713160609489   -0.54279606626374    3.83162010207348
H         2.97106587425896   -1.77317115774320    2.00646030752649
H         2.74019043764468   -0.72315545893012   -0.21521875211761
H         3.63940396017735    1.52586015843518   -0.62365489617970
H        12.41345457141913    2.93884249339605    2.67783744123314
H        12.27339579537796    2.18829054846772    4.26966368101528
H        11.81280885091625    3.89366820107373    4.04157691481461
H        10.94294896606805    0.41705163380893    3.13473221240368
H         7.57181404486206   -1.00924554078751    2.44892262255244
H         9.08342291436731   -1.36874565383001    3.32389603622739
H         9.10564757921705   -1.14916528567723    1.57242295777532

