55
CSD_code = ERERID | q = 0 | S = 0 | Stoichiometry = C16H32ClFFeNP3 | MND = 6
Fe       -1.58898581030766    7.59528698353759    3.95388514052629
P        -0.43618221557321    6.90186292784664    5.66584336964590
P         0.10992017723322    7.55933361878277    2.57159985900303
P        -2.95066375661125    8.51822941614583    2.52671567923533
C        -2.22451151066998    5.83173440750186    3.55885527815602
C        -3.38262997357248    5.48690250814476    4.30274715851040
C        -4.00023191727323    4.24622331644441    4.15822024853003
C        -3.51745946225918    3.29897507825760    3.28933601882554
H        -4.00980745170447    2.34451777165627    3.19057499368950
C        -2.38130089170694    3.61825547294182    2.55225749987047
H        -1.98289205638037    2.88645121509486    1.86225335239412
C        -1.76340964802062    4.84550954764889    2.69055261651995
H        -0.88474992972271    5.04097211123575    2.09666694814824
N        -3.07057689782458    7.57419142684390    5.12505700575130
H        -3.31892601149836    8.35739254502125    5.72566525100472
C        -3.81216616488749    6.52344705693265    5.17612522693154
H        -4.68118100865412    6.43189566364417    5.82193226134437
C         1.09986489498940    9.10540204625823    2.56145661958459
H         1.47465621210296    9.29211862806404    3.56538020389675
H         0.45407081836052    9.93992624029623    2.29810157507748
H         1.92878151382485    9.03326475087619    1.85708963630818
C        -0.10896299122484    7.36315588421894    0.74899335804669
H        -0.79138316556690    8.11414254918160    0.36138079405985
H        -0.51573441594539    6.38075899556993    0.52310570361199
H         0.85755056651804    7.47082859121765    0.25590752085282
C         1.49777435761293    6.35405298225962    2.74225646286564
H         2.26365002576308    6.57863949408913    1.99929910964384
H         1.13753754495096    5.34041226345423    2.58592031710378
H         1.93698317638406    6.41393699934266    3.73406767131093
C        -2.44180775673619   10.04192533925231    1.63495220299948
H        -3.25879338162318   10.39381889228300    1.00476518883640
H        -1.55579496077298    9.88531212055656    1.02628580846156
H        -2.21216103947741   10.78865949956333    2.39454663509967
C        -3.68920806203581    7.49675987656143    1.19069511293080
H        -4.28380844567934    6.71488349522974    1.66104885250239
H        -2.91096134853531    7.01869344958413    0.60272180140469
H        -4.32449945908332    8.10341507757665    0.54574689161395
C        -4.49911507366407    9.20917697776243    3.23434483965946
H        -5.06034715532640    9.71898105178075    2.45088120825156
H        -4.23441283166641    9.92491787114759    4.01183776833049
H        -5.11314539190647    8.41719978881699    3.65918422411184
C         1.12654111168392    7.75749038025022    6.11415710695021
H         1.54755123060484    7.31501516324635    7.01713125623243
H         0.87283364750885    8.80134485751879    6.29623300045038
H         1.85965315046725    7.71602384049589    5.31357139124889
C         0.02656779984202    5.12898507624913    5.79415879976186
H         0.59788121348494    4.82004551274104    4.92381472940343
H        -0.89284089953264    4.54597968169945    5.81812173884516
H         0.60182913485078    4.94502469719825    6.70121068159853
C        -1.24832199034895    7.09195453390496    7.30285988378795
H        -0.55370597144110    6.79694701136288    8.08973840149825
H        -2.14173541939749    6.47282749904470    7.36075156222096
H        -1.51884903542570    8.13886144865977    7.43522256276299
F        -5.10935652264422    3.97224419819665    4.89864079359272
Cl       -1.19752655147131    9.62499216681496    4.67873067699638

