35
CSD_code = ERERUP | q = 0 | S = 0 | Stoichiometry = C10H12N4NiO5S3 | MND = 6
Ni        7.00209805954953    2.12704404397765    3.72302478854212
O         7.74141718632220    3.83440326096374    2.99893272269752
O         7.81273811251454    5.89040821434963    2.18859150570426
O         5.77319800177331    1.88319871056451    2.38915859916442
O         4.18826176506670    2.02181432747634    0.89210083482434
O         5.66342878923208    0.97407301697603    5.15931370852615
H         5.39123625199315    0.23198564776540    4.60777423285797
H         4.88442588943479    1.52664710996742    5.29767001694306
N         8.10822813470243    0.44169147202677    2.96859111032512
N         6.98392080949439   -0.38400277252633    1.11149204285040
H         7.06706058179028   -0.78661859441017    0.19410472495795
H         6.29857068082167    0.36140319089503    1.25215231212861
N         8.37619951632634    2.09969853432429    4.98604079301020
N         7.65871277374250    3.75334026425599    6.46989194697609
H         6.84327054384838    3.89638931442427    5.88351146285497
H         7.93068488157380    4.47432237972008    7.11434096560109
S         9.52513525095060   -1.24002736600469    1.65800053264727
S        10.08388373820186    2.59716733308851    6.82295285458561
S         4.92847007142671    4.10062072632709    4.18340812335641
C         8.05786460422982   -0.29677105156680    1.90060391015602
C        10.19073258405126   -0.52251711604504    3.08594912592983
H        11.18041838482141   -0.77238524917204    3.40505563990153
C         9.30357787415253    0.34749244854709    3.63618908803763
C         9.42799131271463    1.23120020660139    4.77666205426418
C        10.44040386220202    1.35627173251196    5.67011377991593
H        11.35941359743082    0.81243092994300    5.72573978076388
C         8.56608781747048    2.87836332726092    6.01519808674000
C         7.30824613364481    5.01101561538944    2.85742487252927
C         6.03667960789591    5.43715290395468    3.67007301316253
H         5.46462572569013    6.15907354438153    3.08720749327727
H         6.37429245164725    5.92649003026409    4.58619215912604
C         4.74524691529897    2.44694911998451    1.88731684587185
C         4.14776650470168    3.67442564372634    2.59655529555990
H         3.09172452610392    3.48341724490532    2.79387896797572
H         4.22958705917881    4.54093185514725    1.94088660823546

