81
CSD_code = ERESIE | q = 0 | S = 0 | Stoichiometry = C32H36CdN2O10 | MND = 6
Cd       13.31782709874596    5.96891094607657   13.15187847985606
N         7.62348102690815    5.14556169569088    7.06741946169617
O        11.99229002500046    6.09370028399890   11.54867498133068
O        11.48283767042916    3.98437017986471   11.99215826802915
O        14.97098273712093    6.95232306424168   11.83786635784967
H        15.24055869614847    7.51706734030846   12.59703784874129
O        14.13221202353128    3.94241918199023   12.34533495083842
H        13.21118907797682    3.65768508043121   12.14643080285579
O         5.68052572951898    6.48960224514794    5.96175669030860
H         6.42370886948111    6.28555373847340    6.58523837149745
C        11.34745969501487    5.03869661040012   11.32148328604999
C        10.37205720537251    5.04977981070547   10.19103278642148
C         9.65478174627455    3.89981858166466    9.87598825300577
H         9.81574421309155    3.00915900107770   10.46486976074706
C         8.75701716843550    3.90134639406456    8.83022285729622
H         8.18243067118167    3.01523376567345    8.59996938131875
C         8.55570258718528    5.06457429148718    8.08240704385421
C         9.25903857269769    6.22617459825835    8.41564787620653
H         9.09203380235037    7.12044697716740    7.83406020288843
C        10.16615734119594    6.21221446212745    9.45107455130021
H        10.72553547022190    7.09750609888099    9.71242890642019
C         7.40437912640936    4.20809399042426    6.22741132327421
H         8.00860339915734    3.29326670052730    6.20728789229645
C         6.37341485140138    4.30720610069891    5.22647835644403
C         6.18081540886601    3.25663743918196    4.32175218680813
H         6.81743302522279    2.38611723843531    4.39533782143590
C         5.20251249337919    3.31959341084842    3.35637729841416
H         5.06479117173425    2.50096927895181    2.66693921641314
C         4.39100248602385    4.44661866136414    3.27353195103250
H         3.62201436411333    4.49996523742177    2.51744621230807
C         4.56050135591908    5.49757026133741    4.14836091235397
H         3.93921708000194    6.37769970753400    4.09455209599420
C         5.54704795588882    5.44956794411774    5.13523827798884
C        14.81219576699409    7.76635128828238   10.69379672444896
H        15.77864380221999    8.18060360340537   10.38478966908853
H        14.10931908382346    8.58748443802794   10.86793893804680
H        14.42193959386562    7.13367356139004    9.89763565791020
C        14.78288168269413    2.91713188159604   13.06820352455706
H        14.90260973119955    2.02661795564700   12.44069901152161
H        14.23654414537131    2.64481044131947   13.97706957226645
H        15.76600655732416    3.29255876009085   13.34926143355506
N        19.01293026400614    6.79135865515363   19.23569169261592
O        14.64364282555169    5.84381210802921   14.75486864671590
O        15.15278127343816    7.95331040514073   14.31183299180849
O        11.66464172182656    4.98531357149288   14.46609052850809
H        11.39535687471301    4.42050921774896   13.70680909414893
O        12.50344394818367    7.99520867665278   13.95847762203722
H        13.42447303296840    8.27988656173878   14.15749632111853
O        20.95566943236247    5.44642759279991   20.34060142301022
H        20.21235568691305    5.65074751170295   19.71739316797622
C        15.28839948894851    6.89882401351975   14.98220065717386
C        16.26402015064221    6.88755986823542   16.11247141466332
C        16.98131478101867    8.03750019089385   16.42755034316027
H        16.82025169537492    8.92819484520986   15.83875062242090
C        17.87918449340122    8.03587248242146   17.47321839782980
H        18.45382746179271    8.92193747912142   17.70351649385898
C        18.08056820213621    6.87254502838447   18.22087166325663
C        17.37725369920612    5.71095144162595   17.88754802088895
H        17.54436819365210    4.81663224727723   18.46903275900215
C        16.47002825721594    5.72501514037280   16.85222372494134
H        15.91060358207783    4.83977359301761   16.59079119076801
C        19.23269043291675    7.72875498423607   20.07559518601845
H        18.62894384096805    8.64390388567335   20.09589440567628
C        20.26409944830195    7.62922849006456   21.07604212279070
C        20.45767991857831    8.67977839739548   21.98058422090427
H        19.82143178090901    9.55058587298745   21.90729812541690
C        21.43647084174687    8.61643972782854   22.94544583549547
H        21.57493834276768    9.43506719336780   23.63472785113046
C        22.24747559314971    7.48902943545286   23.02798936903976
H        23.01683967997537    7.43539568890250   23.78366321631674
C        22.07701001314817    6.43808791503507   22.15333414622216
H        22.69788109543692    5.55765725019045   22.20685757356698
C        21.08999858630891    6.48650351016256   21.16694515394898
C        11.82403459755595    4.17134545297821   15.61007185613355
H        10.85780119288252    3.75687524899216   15.91948576924163
H        12.52700827602375    3.35032923320636   15.43569421967955
H        12.21447673440287    4.80409368160251   16.40608910841165
C        11.85298200485622    9.02048554142835   13.23540947244865
H        11.73372746399195    9.91127526677850   13.86261757915929
H        12.39920064760637    9.29227616423191   12.32630792175240
H        10.86964993363465    8.64532418065494   12.95472089614380

