74
CSD_code = EREVEC | q = 0 | S = 0 | Stoichiometry = C36H30Cl3CuIP3 | MND = 4
Cu        5.39605965184897    5.48584149338044    0.65237468715137
I         7.22103709374399    7.15873741429361    0.79032893357746
P         3.30452054274439    5.42520215799451    1.50794396964108
P         4.77816301481540    4.21827688184743   -1.21991943355203
P         5.42629157065780    3.21259521200834    1.97392251829413
Cl        2.26613200974025    3.83470089020847    0.98886959995609
Cl        3.85513350412412    2.54272302849639   -1.77589222152451
Cl        4.67817474520355    1.37015913872043    2.07473920621192
C         3.20997358311002    5.39063462569772    3.32658185844231
C         3.49164257652062    6.57357753693248    4.00506971922955
H         3.64344289290051    7.48778493469014    3.44691792083113
C         3.58168701864672    6.57342787451970    5.38311947020155
H         3.79883141546233    7.49270701965615    5.90614247898466
C         3.40388354367858    5.39487778484407    6.09090501064215
H         3.48162496733637    5.39492195158199    7.16769627478340
C         3.13143250024759    4.21680188373135    5.41772692034971
H         2.99808414006699    3.29634433623866    5.96670560381776
C         3.04196286672001    4.20818636158708    4.03726707067486
H         2.83333088452333    3.28212403709409    3.51895758733776
C         2.15463864209701    6.79994778315502    1.14939733417354
C         2.74377337145345    8.02669278709936    0.86301309201813
H         3.82307448927921    8.11318666086641    0.86299991569428
C         1.95426673822651    9.12425015986911    0.57506047605790
H         2.41540473653729   10.07596924540248    0.35799246538613
C         0.57592878381008    8.99400348623438    0.55513098283861
H        -0.04348334230741    9.84728405120906    0.32168081455458
C        -0.01218301782763    7.76977105599819    0.83120925797525
H        -1.08787422552051    7.67113380700849    0.81498128188317
C         0.77165653166787    6.67183491431386    1.13168509188371
H         0.31131334819214    5.71892357264527    1.35149009542176
C         3.62764892284574    5.50785224529251   -1.81746049466983
C         4.16569528531640    6.78118141912279   -1.99474509804631
H         5.22861650696003    6.93697021883515   -1.86487248741769
C         3.34819233934419    7.83795846488732   -2.34231794621427
H         3.77445918494367    8.81986382312140   -2.48214128655981
C         1.98627753392601    7.63696661966551   -2.50449487986314
H         1.34541579049140    8.46474595773716   -2.76857011454594
C         1.44824252646466    6.37475314278451   -2.32742188943314
H         0.38745848340758    6.21493685551665   -2.45450823051888
C         2.26301062851998    5.30989433636464   -1.98321486273743
H         1.83514354799098    4.32590259707337   -1.85349710604310
C         6.02523059717237    4.35849852080468   -2.54908365228044
C         7.33989724281003    4.64196678678142   -2.20685030489114
H         7.61074726760047    4.76822041535522   -1.16923085897511
C         8.29924962589767    4.77185533282938   -3.19531985301673
H         9.31805134896972    5.00101362540064   -2.92259898321197
C         7.94719586368503    4.61147432394829   -4.52401118484264
H         8.69490701686287    4.70965128407425   -5.29703195518049
C         6.63343145910133    4.32875882111913   -4.86788076634064
H         6.35914699997136    4.20877090602508   -5.90588575591102
C         5.67028626611769    4.20568647261792   -3.88593668499957
H         4.64298070378610    3.99331500713049   -4.15106765280086
C         7.00724241522454    2.87064837129827    1.11006415844494
C         8.17750220532662    3.53739908190987    1.45755866734047
H         8.19442732290188    4.20478388389899    2.30703281703695
C         9.32696036459967    3.34883637983929    0.71085181606924
H        10.22866626011723    3.87494274200947    0.98548771082741
C         9.31747738288119    2.50276068832106   -0.38565446257843
H        10.21592809158955    2.35991270148869   -0.96711720640477
C         8.15121261489281    1.84471674059212   -0.74076408099115
H         8.13596330322326    1.18917241223206   -1.59925794706674
C         6.99699356217786    2.03477733541136   -0.00404299839080
H         6.08976573253156    1.51511055254777   -0.28176159194139
C         6.06165856552654    3.47434517659532    3.66950975948823
C         6.35253876456738    4.78962183082893    4.01939221358066
H         6.21190081137538    5.58007968547983    3.29448334138207
C         6.81170435433155    5.09025931528139    5.28659528159076
H         7.04102859047441    6.11319348867436    5.54375485740930
C         6.96999701500088    4.07862612942311    6.21928202774745
H         7.32158845282190    4.31044034706493    7.21362994641198
C         6.67584792876755    2.76951113414642    5.87708743172014
H         6.80025671621055    1.97934254628927    6.60334081704144
C         6.22347794075955    2.46271222318267    4.60638230574111
H         5.99685188474903    1.43814796978847    4.34978920114226

