82
CSD_code = EREWOP | q = 0 | S = 0 | Stoichiometry = C36H38AgIN6 | MND = 3
Ag       -3.96092058750165   12.46922851903829   23.21660573225335
I        -6.15987855660054   14.18502299601977   23.56350072546225
N        -1.16848776129950   13.83499336713702   21.98645535695276
N        -1.67809499813827   14.52459804890946   23.94855993417441
N        -2.91864239433148   17.06922419199164   24.93274115648462
H        -3.91267725656226   16.92382241218110   24.79500139508259
H        -2.47292473453996   17.05366609794132   24.02183473057990
N        -4.59368757186942    9.30580907262664   24.09435695529474
N        -5.63528591037672    9.93869640424810   22.33370936048116
N        -8.44355198140591   10.88238901134140   21.94852524172216
H        -8.39472739583572   11.85472942759980   22.23235586663954
H        -8.22418040698644   10.31223055327351   22.75799444521477
C        -2.07728148625799   13.68374335935713   22.96910863332415
C        -0.21520215192211   14.75101175948241   22.34339725723595
H         0.59581426775727   15.02116179524096   21.69854125872800
C        -0.53483068578294   15.18337076364689   23.58645047451346
H        -0.04474149044370   15.90576392096832   24.20556577318694
C        -1.19760278709790   13.14840040056155   20.72775077727290
H        -2.03220617140885   12.44705457532378   20.72725334200844
H        -0.26757949947645   12.59880164289691   20.57003061655932
H        -1.33150919639448   13.85672384883035   19.90749270760437
C        -2.39708413918449   14.62316368627554   25.19992450202256
H        -3.44475068829947   14.39197243032067   24.96546819191078
C        -1.90694766114083   13.60518680067901   26.19647274231762
C        -0.55734866165082   13.48948225504067   26.50390224192267
H         0.16728916510635   14.11596754462473   26.00337197269303
C        -0.12915833797862   12.57019534566309   27.44451357359150
H         0.92302951342463   12.48970806943860   27.67575254198468
C        -1.04538353864455   11.75878258891796   28.09105895962783
H        -0.71046902043927   11.04524005483176   28.82923621548504
C        -2.39176589120641   11.86603928769501   27.78741283806741
H        -3.11155441659047   11.23636734993770   28.28940155302687
C        -2.81999390584348   12.78167537645265   26.84358901752239
H        -3.87385727667027   12.86929467290765   26.61674727503078
C        -2.36287648374288   16.05917943508399   25.80399112247622
H        -1.31928751494583   16.33332681541791   26.00351167524179
C        -3.10000731349318   16.00389101138942   27.12234399978784
C        -4.47819087536751   15.83461218154471   27.16449297468538
H        -5.05547467169885   15.77677838933875   26.25412330761678
C        -5.13422213934098   15.73138281261603   28.37774505800446
H        -6.20583985385765   15.60012528829734   28.39330139167957
C        -4.42204942532909   15.78853098084994   29.56295994940476
H        -4.93480968239372   15.70366098857138   30.50988511566296
C        -3.04871798886891   15.95518378411268   29.52905326703516
H        -2.48463611010014   16.00120274251149   30.44931652589186
C        -2.39362304530022   16.06271015118871   28.31562804372669
H        -1.32019402717767   16.18971935757092   28.29664183470258
C        -4.72957722549451   10.34666866852761   23.25003728650202
C        -5.39629594326800    8.26344266485925   23.71401699549665
H        -5.44153517648303    7.34183954846073   24.25731688828492
C        -6.05197999634955    8.66234994996264   22.59829201586598
H        -6.77705570017047    8.14070740439921   22.00878929009928
C        -3.74036417674177    9.28860158607398   25.24672259720913
H        -3.18667339933549   10.22661385254430   25.29031109524038
H        -3.03470109626106    8.45755711601252   25.18802874241699
H        -4.33084674428637    9.18546793292072   26.15942106378882
C        -6.03343353689894   10.78457830683391   21.23046205386589
H        -5.89957711704407   11.81832238864225   21.57904122430637
C        -5.15118753663602   10.58194858948618   20.02670074916778
C        -4.90613012819351    9.31479849038241   19.51352808263437
H        -5.32523886789197    8.44411062779446   19.99726874895828
C        -4.12032334810024    9.15489926382515   18.38637570623266
H        -3.93755275031827    8.16420606424179   17.99631333440317
C        -3.57337838229991   10.25961037938825   17.75709542447709
H        -2.96425520333719   10.13375478640015   16.87433767136202
C        -3.81048866935885   11.52568362711109   18.26447798324517
H        -3.38664963651861   12.39188726385240   17.77800152759725
C        -4.59249648992914   11.68547382293251   19.39351567367234
H        -4.78365676030495   12.67651361738326   19.78203008368931
C        -7.53842631916497   10.61124670542805   20.85690260839904
H        -7.70340803527247    9.57338344025631   20.54090585102646
C        -7.80900933801796   11.51501296271688   19.67605599534735
C        -7.94728572388550   10.97231773367226   18.40590504944065
H        -7.90319108007051    9.90018867611247   18.27405397622750
C        -8.13541912654563   11.78958538743509   17.30611100067514
H        -8.23943189132503   11.35201421939020   16.32380362085490
C        -8.18985230137050   13.16324380274639   17.46471044714159
H        -8.33675771204547   13.80284531851634   16.60669080011705
C        -8.05573542162555   13.71220594339101   18.72796397636353
H        -8.09652661546254   14.78290981937758   18.86190150624714
C        -7.86212395642630   12.89481087078863   19.82691470032137
H        -7.75121184626923   13.34757759817681   20.80041859742057

