27
CSD_code = EREXOP | q = 0 | S = 0 | Stoichiometry = C10H10I2N2O2Pt | MND = 4
Pt        4.35041451172683    5.20514636882699    5.95702197994084
I         5.31116249410979    7.13170624232381    7.43352918573492
N         5.36262535635494    3.90238601019119    6.99822075694716
O         4.95230474618029    2.02019615301695   10.01520760620074
H         5.51806522515465    1.38301885140887   10.46971436506952
C         4.85636207006019    3.40499346891573    8.11907518602345
H         3.87531642894099    3.74765060607509    8.43241252659291
C         5.54239465146432    2.47111988778119    8.89331385904724
C         6.56592809646933    3.50734903937514    6.58460997506779
H         6.93190312113459    3.94386161238125    5.66064241375359
C         6.80138494455190    2.05528178458259    8.46442193218656
H         7.36385567313887    1.33271155870962    9.03857517428454
C         7.31276652444849    2.58605622460304    7.29268705337269
H         8.28286284962488    2.28645100592388    6.93090442619354
I         3.39032336045350    3.27761471683692    4.48058781450815
N         3.33864101127745    6.50828937323647    4.91599696857410
O         3.74919434479220    8.38975335159533    1.89862908024753
H         3.18345058793742    9.02685005075591    1.44399450654369
C         3.84503103263412    7.00545475283296    3.79507482659733
H         4.82608241159946    6.66273061025256    3.48187777038694
C         3.15901592653386    7.93909640495232    3.02056828079424
C         2.13526722798049    6.90333787003245    5.32936669219478
H         1.76922733125511    6.46688678696716    6.25332748654366
C         1.89996487028804    8.35497668896130    3.44923477284725
H         1.33751944520775    9.07740749601389    2.87489406967459
C         1.38844973540462    7.82440285792552    4.62100247711140
H         0.41828602126809    8.12397022550050    4.98260881357969

