54
CSD_code = EREZAC | q = 0 | S = 0 | Stoichiometry = C15H26BN8O2PW | MND = 7
W         3.08826073187916    0.03926201195224   13.38935502751701
P         4.91878348455390   -0.86552608026555   12.01301922465091
O         1.25736474533162   -1.14284845064029   13.17542835648554
O         4.34874197914217   -1.17346000676427   15.77249656411949
N         2.55029245656537   -3.09750768438321   13.28200098496192
N         2.31319621247499    1.14722949173811   11.66153385305665
N         2.13840605370091    2.46673142251065   11.76402961809931
N         1.64285009124075    1.24243274384505   14.44978918501166
N         1.50168979539305    2.53675669213480   14.15082676454284
N         4.32012463253887    1.75535079145188   13.74288132693167
N         3.83882812895544    2.98401840395886   13.52264513545453
N         3.77810604347924   -0.72685228868572   14.82254358301268
C         2.12443400635632   -1.89953099432399   12.64744880294674
C         2.03476209625721   -3.29980670942205   14.62137424494680
H         2.01106271994166   -2.33834828057155   15.13068637361161
H         2.69647091467890   -3.97710189054636   15.16069174587586
H         1.01953812440664   -3.71807268455843   14.60815772519208
C         2.53625526711558   -4.30485205745204   12.48764038968734
H         1.51962217495291   -4.69684380490924   12.33399048536380
H         3.12356506009934   -5.06958802685911   12.99804002903899
H         2.98562808145815   -4.11778386492451   11.51317956146398
C         1.63964802155772    2.95522026303461   10.61912044283711
H         1.42815001961962    3.99887389456470   10.50470071188771
C         1.48588855682109    1.90815537721022    9.73575301713026
H         1.11211556529749    1.94244962569013    8.73307860838003
C         1.92313644153761    0.79061870536588   10.44583076013197
H         1.95616612033552   -0.23321703263658   10.12304792841167
C         0.53322904010728    3.07381468218351   14.91009180067911
H         0.26598677539385    4.10743423028323   14.82075159999957
C         0.03194961919260    2.08569526957268   15.72924221159788
H        -0.74793938438635    2.17198252584226   16.45743318630568
C         0.76835546481534    0.94772305717302   15.39679117314343
H         0.70039804742047   -0.04837636360988   15.79137579625906
C         4.71032444306602    3.90125201146384   13.97428872017776
H         4.50697932055708    4.94921496707694   13.88947664559096
C         5.79387944743610    3.24096881489168   14.51121311871401
H         6.66654948743852    3.66929800006254   14.95906869984598
C         5.49510640325210    1.88885839286298   14.34958586707415
H         6.05348754750978    1.02721166896489   14.66777319971794
C         5.79920930352291   -2.24668289272255   12.82248350251327
H         6.62883470553948   -2.60633671313564   12.21411842189634
H         5.08234392957553   -3.04450994516383   13.00477238897577
H         6.16627637087130   -1.89802329873651   13.78630324653442
C         4.69486729558970   -1.55426482933951   10.31574134553877
H         4.34897929124396   -0.76595104795828    9.64899678914224
H         3.96598785992470   -2.36014598138184   10.32162956520659
H         5.64602699431407   -1.93921893462223    9.94844820114637
C         6.33134281134707    0.25133407132308   11.60427562197993
H         6.80682361011401    0.59923849456217   12.51708241412367
H         5.95666870847176    1.11654708601950   11.05776096972249
H         7.06620812267635   -0.27071249180047   10.99228021972663
B         2.38205196001083    3.20589425499488   13.08504152624598
H         2.09848671204763   -2.03109500434981   11.54650391466964
H         2.13869858725186    4.35849040902970   12.97847940271401

