54
CSD_code = ERIBAI | q = 0 | S = 0 | Stoichiometry = C22H24Cl2HgN2O2Se | MND = 4
Hg        8.66383907008351    1.27522505683122    4.15984229691249
Se        7.37819410323909    0.08654618460069    2.00820131508640
Cl        8.94966367478504   -0.56129840650409    5.48456929932552
Cl        8.56297881857440    3.58655481301536    4.22004459111631
O        12.00067861695849   -0.30990927905620    1.46354063355362
O         6.10960768725291    4.17387911587829    1.53664250441410
N        10.49759040753912    0.88119088701440    2.59806493665117
N         5.98546358070305    2.05449429674596    2.22150836393978
C         8.58183064307667   -1.44514781286395    1.91400274355944
C         7.90428651229314   -2.65853819786000    1.91014931012809
H         6.82038951606670   -2.63520675470060    1.87549407772635
C         8.58512182303157   -3.86120982474424    1.95307156213309
H         8.03957971976399   -4.79287212062169    1.95617794917193
C         9.96957608235549   -3.85964511239025    1.99184944331375
H        10.51490124441402   -4.79051473591013    2.02436334635384
C        10.65694369611600   -2.66106306388502    1.99944103701583
H        11.73546095840336   -2.65247006117553    2.04254840711580
C         9.97789047390354   -1.44222456867763    1.98155097972407
C        10.79353736047160   -0.22896068666059    2.03734817421030
C        12.65236844299064    0.93805426778357    1.66074929379563
H        12.86986887335241    1.37396489331424    0.68158169510800
H        13.58877097803553    0.76158361472901    2.19607280922483
C        11.64388327106229    1.78620136055461    2.47943923289113
C        11.23412835009250    3.06308874549790    1.75028034734005
H        10.87147743191101    2.83559860079680    0.75012524509152
H        12.08701388250489    3.73333091656911    1.67840807906380
H        10.44004427516634    3.56160889118062    2.30079488816380
C        12.17788238804656    2.11014898246782    3.87477763722747
H        12.41181108921404    1.19476977065759    4.41644660278360
H        11.42821261513137    2.66573010100577    4.43809154819317
H        13.07481601000074    2.71999092634606    3.79628156461760
C         8.06667549879919    1.20473076066405    0.63316005145270
C         8.97562081298633    0.74303486889523   -0.31014784861677
H         9.30571558465340   -0.28628796706415   -0.28746575662834
C         9.45357467559998    1.60185762418852   -1.28364332872600
H        10.16188745365257    1.23543126931114   -2.01255614853279
C         9.03084231642432    2.92430082690921   -1.33134958610353
H         9.42065088833882    3.58834793397241   -2.08771151151427
C         8.09971028251508    3.38311787431029   -0.42040098477759
H         7.73928903846155    4.39965671546137   -0.45081444370950
C         7.59945762703380    2.52405766989330    0.55341912593560
C         6.55802435649811    2.92291400190338    1.47520919530311
C         5.12358727582216    4.19670240408558    2.57162665224859
H         4.22268909136609    4.67281574319720    2.17980938374251
H         5.52120457683872    4.78232492153200    3.40533240679772
C         4.91015997156909    2.70526437359043    2.95466713332296
C         3.57751777197125    2.16111137999293    2.43470663754339
H         3.47943392181380    2.35058531822401    1.36759338684559
H         2.75040726568983    2.63272077177826    2.95929191160812
H         3.53895512074787    1.08725326308034    2.59777130577472
C         5.04422514526175    2.44460668259308    4.45121308722973
H         5.97491103983853    2.86480058536998    4.83153053469015
H         5.04320894021242    1.37052292541267    4.63160261722743
H         4.21343974738158    2.89652925276517    4.98769626394137

