89
CSD_code = ERIBUC | q = 0 | S = 0 | Stoichiometry = C29H54N2Si3Zr | MND = 12
C        15.20498832840885    9.67205117455536    4.21668065132699
H        15.59858729823837    9.74890642098438    5.22852512147316
C        15.67701403451346    8.77090879728496    3.23134552261992
H        16.32212938655539    7.92750671715364    3.43024551437393
C        15.30758962253756    9.25228802201561    1.96637740281694
C        14.60156212174314   10.44986552651024    2.15615205809444
H        14.22615850463463   11.08545500621030    1.37112097196853
C        14.54863510163667   10.75754214953048    3.52467148149744
C        12.74385383313933   10.29237004097102    6.47466209372839
H        13.55669153679466   10.47821806158655    7.16716728220316
C        12.45579208619512   11.11732680920470    5.35301155290343
C        11.23730442241996   10.64010051914642    4.79883891028836
H        10.67629373015287   11.12340012797181    4.00910056786271
C        10.76442993957368    9.58904726479097    5.61429514285419
H         9.77912112697674    9.14577611910003    5.54654390332430
C        11.68171463204915    9.38526168151237    6.67484462126867
C        11.79347497858255    6.43919840247482    4.54021288957051
H        10.95080026541344    7.15296286155390    4.58652885585878
H        11.51655408993011    5.55537820967170    5.13441508028836
C        11.95792876396018    5.98682976654118    3.07767902088692
H        12.52613020585010    5.05528110059350    3.04091204516841
H        10.97045966049479    5.81150316642724    2.64401774156236
C        12.70121303943767    7.05516378907065    2.25856947949896
H        13.76674688125380    7.02527432477266    2.54109577355519
H        12.62387267893051    6.77725291041753    1.19795313210379
C         9.11110485682727    8.64851749565765    2.56555034080659
H         9.03785813938840    7.66184922900206    3.01673377526039
H         8.28589221471222    8.74265845595136    1.86619675786702
H         8.94831867649640    9.38275486148367    3.34829393761619
C        10.54626062443710    8.02271073840964   -0.02677191502943
H        11.42429881034006    8.09977666255146   -0.65984011155770
H         9.71615986650805    8.46037541277029   -0.57156836527276
H        10.32646618810605    6.96786905077238    0.10667984334682
C        11.01935541115421   10.78227144880611    1.30044941978461
H        11.84204771134910   11.19090800339544    1.88226361378799
H        10.11807422303591   11.34136676245375    1.52944331730021
H        11.24102724153709   10.95183597661987    0.25242286019986
C        15.49070323731026    7.25206750525509    6.51581504583824
H        16.38033325854121    7.44057725168888    5.92514293343926
H        15.81910923866173    6.79343950780840    7.44223233982356
H        15.02998052025496    8.20723564675656    6.76280268505397
C        13.69390323035169    4.72913681413171    6.82934964351352
H        13.16397636226003    5.14193967712059    7.68225056846615
H        14.54128659348909    4.16907025813056    7.21155359936931
H        13.03111818708408    4.01671255874395    6.34667366100512
C        15.27980909564194    5.09164967596113    4.28662693895849
H        14.72090684705472    4.23080458620141    3.93021939604535
H        16.20322811436916    4.71555298605900    4.71722927144345
H        15.54518376718893    5.68718212865139    3.41804411198341
C        14.94741704733684   12.97479487889208    5.72131950544946
H        15.47993484968486   12.23176667155362    6.30635084393450
H        14.41787870018314   13.62224259355860    6.41271514885945
H        15.68942153158597   13.57773693974056    5.20872974721714
C        13.00331546484198   13.56623299342090    3.38883758689974
H        13.76337317703381   13.98232563872159    2.73683287984436
H        12.63045678355728   14.37015689555565    4.01415687631308
H        12.18390463838601   13.22553635016494    2.76655976205152
C        11.37607799786727    8.63803384677363    7.96003183653334
C        10.52086476638379    9.57474237223833    8.83220787655848
H        11.05671890750949   10.49985449847649    9.03161383044910
H        10.28229801329963    9.09927945607481    9.78149792372601
H         9.59174409831696    9.82380954218873    8.32523145949014
C        12.65466479228128    8.27733232388536    8.72101008718859
H        13.29005539362292    7.64907804878276    8.10244937244911
H        12.40332278278890    7.73113511395923    9.62850383813050
H        13.20470504611527    9.16862421043898    9.01248733254250
C        10.59639371387920    7.34670107932889    7.69662923016667
H         9.66062965633025    7.54564884541862    7.18067366827917
H        10.35980743453070    6.85789738568358    8.64027035554836
H        11.19732616539158    6.67037306839703    7.09605785451145
C        15.73287426125233    8.71946788873189    0.61601653182193
C        16.14460235097311    7.24566930016449    0.68026011963603
H        16.97188628828910    7.10384088215241    1.37125901930574
H        16.47005634567326    6.90958516625139   -0.30293261531133
H        15.31146578249343    6.62135840809801    0.99365406585331
C        14.59347215672919    8.87921821181770   -0.39756493989489
H        13.67128674461762    8.47455625634487    0.00996151091026
H        14.83313954244010    8.36028194808294   -1.32422066340899
H        14.42993196738288    9.92760267537865   -0.63060758348705
C        16.94450748615089    9.54130430990759    0.14492420025123
H        16.69147031983267   10.59759664711292    0.10226339994791
H        17.26421118712552    9.21861738000616   -0.84424941454017
H        17.77509380402473    9.41924032994449    0.83639632317544
N        12.20597811782409    8.40298123594922    2.48436681708835
N        12.98195799000633    7.08181472427755    5.08151910496860
Si       10.79958768706028    8.91001728052368    1.65720240449637
Si       14.27241900092001    6.09018946650432    5.59698549612703
Si       13.74201253936605   12.17427477757420    4.46510160831466
Zr       12.97198678145436    8.98074869352689    4.29593711250316

