89
CSD_code = ERIDEO | q = 0 | S = 0 | Stoichiometry = C40H40ClF5P2Pt | MND = 4
Pt        6.05542434152193   10.90877214066683    5.67960427713904
Cl        8.01821283902410   12.15442326291529    5.96318660250941
P         5.02491303633481   12.39962089121863    7.07904999215418
P         7.22306425358459    9.47673931603563    4.31825691646064
C         5.35680172127179   14.18380371202836    6.77434190651179
H         4.62245428899601   14.79731982413628    7.30284655759313
H         6.34254922889727   14.35949141849009    7.21772751620556
C         5.41321122989425   14.51938703927070    5.27930805237760
H         5.65270809508528   13.60496513495401    4.72492071500374
H         4.44533775628540   14.88239026973171    4.92823301482568
C         6.48488354575785   15.57036986500860    4.99772491840897
H         7.45802451709914   15.15579881584126    5.26287256654906
H         6.30742214454243   16.43785585226951    5.64011147614075
C         6.50878881119339   16.04713619754778    3.54463733761132
H         5.55856195225477   16.53755607440649    3.31535616374216
H         7.29689331921616   16.79794388149213    3.44686703243674
C         6.74581905038393   14.94172228997004    2.51392753178545
H         6.77360028463045   15.40324035984515    1.52273348604989
H         5.90167508391183   14.25207845995578    2.52891679500675
C         8.04952344461825   14.17897773079623    2.74179563334865
H         8.86309226486933   14.89904751398481    2.86168759027140
H         7.99174632580499   13.60334653626056    3.66441697271247
C         8.41054662311578   13.24710108647574    1.58314960798348
H         8.62089624402384   13.84823870031837    0.69418878587686
H         9.33103239620644   12.71786969095507    1.83946090025133
C         7.32318974443943   12.23513881804359    1.21276683914769
H         7.70627685655939   11.59420295786101    0.41303406283847
H         6.46221739222192   12.77185759711493    0.81084473724982
C         6.84262092652534   11.35631793902786    2.36573617701558
H         5.96200631966689   10.80145058557771    2.03490966013547
H         6.52365819789908   11.98338485406636    3.20513938991163
C         7.90518480403463   10.38457462561308    2.87915929710689
H         8.77127844644748   10.93810150040693    3.25298067838425
H         8.24095431111519    9.68928850492824    2.10396503289731
C         3.21935531928064   12.21777446378442    7.18185921809058
C         2.42168216742600   12.72624338318070    6.16069814720831
H         2.87138070920077   13.31502468049971    5.37472271670847
C         1.06472588863104   12.46361432199581    6.14048708560072
H         0.45195948554549   12.85936115764342    5.34416945691622
C         0.49466877914926   11.67999169891713    7.13103103167999
H        -0.56333669884032   11.46638289970163    7.10876706057325
C         1.28500834900537   11.16391940342499    8.14473102524797
H         0.84392886881925   10.54785854110621    8.91424475156849
C         2.64304862737816   11.42536993507153    8.16943381037777
H         3.26118858545432   11.01154919824737    8.95395853064169
C         5.58637725507732   12.12472958489387    8.77917784905522
C         5.29761231698047   13.00916962388734    9.81334940561979
H         4.70465756146353   13.89224234418070    9.62064058089663
C         5.76582907558393   12.74902663825305   11.08810326605677
H         5.54433335063328   13.43530363987749   11.89236456066414
C         6.51809195119845   11.61102974145561   11.33628378844734
H         6.88235072509372   11.41563293596477   12.33403083602257
C         6.80147684431057   10.72523762379663   10.30973343954302
H         7.38324193901636    9.83679816382474   10.50492219870758
C         6.33630691528798   10.98204675513531    9.03318760752532
H         6.54405439363362   10.29741689379345    8.21580703325264
C         4.32472215842992    9.88080788367861    5.45863657550002
C         3.90232385633426    8.90081663796405    6.34584214019277
C         2.69210418245972    8.23434338328925    6.22300077032097
C         1.84541324385963    8.55185467954783    5.16834640822362
C         2.22616532781735    9.53104196711608    4.25905927222847
C         3.44571346695949   10.16987584937392    4.42432089159972
C         6.25845565706276    8.07686409785044    3.66881857857060
C         5.82868029353033    7.94597085590688    2.35544190139836
H         6.12693519399306    8.66242474429111    1.60520299954541
C         5.01216262670289    6.88633103850546    1.99625304014239
H         4.67937166438004    6.79177704005569    0.97297291277603
C         4.61744561644446    5.95522973346002    2.94083321699550
H         3.97297905046349    5.13696766533519    2.65683403816431
C         5.05277789096214    6.07349516947488    4.25204849553617
H         4.75204611964065    5.34592241442808    4.99116347178012
C         5.86639406972397    7.12857550911674    4.61272141475075
H         6.21250178621124    7.23023873223547    5.63349400574962
C         8.65214768616717    8.60604376681337    5.02376663616751
C         9.05081438439381    8.86005201058235    6.32912995504773
H         8.51524782064213    9.59525429737271    6.91450009992915
C        10.13554335566804    8.18845996917258    6.86493448942080
H        10.44605860748971    8.38949590199215    7.87954104440066
C        10.82112451020977    7.26044749870263    6.09981835709008
H        11.66793165382610    6.73574347787848    6.51701583999468
C        10.42123521359523    6.99950293302135    4.79778225692427
H        10.95521584694255    6.27204380360186    4.20402017434631
C         9.33786972986114    7.66666786577962    4.25905609308584
H         9.01395787982394    7.45633733880756    3.24861468637201
F         4.70982544315833    8.58579475668492    7.38272847990705
F         2.33042421990078    7.29472401169861    7.11085395331844
F         0.66822700543261    7.92360672497187    5.03302242528451
F         1.41119129384946    9.85299597970479    3.24217005041905
F         3.79708093722791   11.13425518575037    3.54449370074241

