69
CSD_code = ERIDIT | q = 0 | S = 0 | Stoichiometry = C32H28AgN5O3 | MND = 3
Ag       10.85843573186344    2.97498122752934    5.13480315706534
N         8.76723608684335    3.60215711244221    4.49864161590296
N         8.12957340020042    4.33939890005701    5.40096762631726
H         8.55882934265873    4.47292336627557    6.31241175859640
N        13.05296811829714    2.39101924501886    5.11685664962764
N        13.54445339694758    1.88415552500274    6.24146986696663
H        12.91964363085453    1.77653866173723    7.03552110601266
C         8.00576924162923    3.59254593087465    3.40155564446055
C         6.84175471546129    4.35631535250853    3.62221956563246
C         6.96316166472882    4.82302408466611    4.93108897664250
C         5.77776430969849    4.69029384268428    2.63438812134130
H         4.95694430081336    3.97306184946483    2.67705057625625
H         6.18758843977531    4.67795619116888    1.62632392552002
H         5.37475785758691    5.68024280460106    2.84010471558250
C         8.42707407192225    2.86285595066610    2.21038986841590
C         9.78192291840819    2.78941855970937    1.89043935326825
H        10.50461198984381    3.29956423395698    2.51655900615015
C        10.20490227956318    2.09394390271085    0.77441531927664
H        11.25828483671900    2.05025851319066    0.54072849660286
C         9.27998174445124    1.46541513572748   -0.04349170099220
H         9.60838517082039    0.92661187930211   -0.91992189739431
C         7.93228739049570    1.52585922831133    0.26979029366088
H         7.20915667104604    1.02742580339832   -0.35931347497200
C         7.50563188315769    2.21575077128451    1.38964231014134
H         6.45713914175874    2.23030426914503    1.64259595427793
C         6.10665835588549    5.67502984335615    5.74270205444811
C         4.72054968739729    5.64991984332083    5.60008173662184
H         4.26682485287178    4.97104585973838    4.89564005511580
C         3.92310813549418    6.46602688880801    6.38082507693550
H         2.84970618654189    6.43567442660283    6.26385127411129
C         4.49449734860229    7.31418481376563    7.31430124866817
H         3.86930172682272    7.95033856571949    7.92280611251351
C         5.87113892869999    7.33868414379695    7.46929522642286
H         6.32113860811009    7.99392900463259    8.20006957020234
C         6.67417636159761    6.52648355531911    6.69208828187996
H         7.74689560908304    6.56096048499019    6.81147779606390
C        14.07051344834476    2.48130270277241    4.25909067771621
C        15.25553790264134    2.03274729189517    4.87037029401027
C        14.87110391106942    1.65902008753918    6.16002523002918
C        16.62059890520529    2.00576529781841    4.27380259921850
H        16.56491253282333    2.08189418957002    3.19179190669070
H        17.13710508352770    1.08587331526180    4.54262369910562
H        17.21179120985046    2.84874564363774    4.63365005020864
C        13.83888630681739    3.01867598497020    2.91902875626857
C        13.11153315900943    4.19966048686217    2.78150299125162
H        12.76436513913996    4.71433094296866    3.67085717262263
C        12.86050616708478    4.72507691759687    1.52705088454434
H        12.29786913735374    5.64172281700403    1.42991866914036
C        13.33148616794273    4.07818436578873    0.39657179552825
H        13.13781745086027    4.48970495017021   -0.58280028827334
C        14.04506848839115    2.89768633489912    0.52497706817258
H        14.40231556882909    2.38437163706983   -0.35610097613598
C        14.29528536468569    2.36641182091497    1.77722162168662
H        14.82267008562236    1.42842611522985    1.86930488923578
C        15.61535889786403    1.09185814331914    7.27554437190180
C        16.95950699060417    1.39555076903103    7.48325551377852
H        17.46330947133460    2.08223894150069    6.82290892691071
C        17.64424508975413    0.84604012003597    8.55132096206002
H        18.68497391647701    1.09247918343045    8.70263976267514
C        17.00131269779677   -0.01220361789200    9.42698053197232
H        17.53881307362591   -0.44035111468360   10.25976753393280
C        15.66355997509674   -0.31552422269579    9.23221767033210
H        15.15530199951053   -0.98047592984899    9.91446872774254
C        14.97331990701563    0.23065643081802    8.16757233777054
H        13.93418771308866   -0.02237062623975    8.01851122314282
O        10.18863671239109    4.17856456734989    7.25846083378049
O        10.52456908314861    3.47217775444366    9.24323829744230
O        11.14995156583359    2.30208209858635    7.57281246153829
N        10.61883274081391    3.31927683173568    8.05253853559161

