43
CSD_code = ERIFIV | q = 1 | S = 0 | Stoichiometry = C21H16ClN4Pd(1+) | MND = 4
Pd        6.12136454371128    8.02814712014933   -1.58824005516715
Cl        4.42841510748264    8.38989003423803   -2.95111218639965
N         6.53489788097305    9.94509836471243   -1.12041998948927
N         7.58083513112085    7.71641397599708   -0.41591506287303
N         6.15689993060170    6.01519608588257   -1.69423826819108
N        14.02585737066325    6.34971013856528    4.75031078782434
H        14.76111691021656    7.02654717662359    4.84311846501704
H        14.06350824503787    5.51985915570218    5.31356236252123
C         5.92014911559332   11.04481165752535   -1.54577060851272
H         5.09496355090373   10.89718123104349   -2.23476466802871
C         6.30421214994024   12.31335844069902   -1.13780802094514
H         5.77852257418431   13.17854072629468   -1.50678196921234
C         7.36594971239949   12.43984987839120   -0.25515707913061
H         7.68931448580118   13.41186753206751    0.08281700967154
C         8.00954281217168   11.29587666916279    0.18947206658819
H         8.83683642319994   11.36820043322319    0.87635994711802
C         7.58018044809622   10.04974626159455   -0.25470625361012
C         8.18974620140420    8.77131156182923    0.14947558528745
C         9.25825459210671    8.57187938698524    1.00639271607338
H         9.73807484869157    9.40788049444279    1.48626789808962
C         9.70210098980474    7.26479003128004    1.28085387636969
C         9.02836929277148    6.19557290968909    0.66141538048650
H         9.36253110442661    5.18631564088698    0.83231731823142
C         7.96475948091033    6.45009339202309   -0.18706613673164
C         7.14386605293184    5.47639044838253   -0.92698101191239
C         5.36011211856131    5.21633417210864   -2.39792384872842
H         4.59260100378630    5.70448276721739   -2.98965807282994
C         5.49442496237635    3.83615182914290   -2.38350027044952
H         4.82728560885169    3.22519420934551   -2.96890261237656
C         6.49447009392674    3.26902486160158   -1.60850034403536
H         6.62634777789643    2.19891390517071   -1.57523244455317
C         7.32629707482064    4.09859189439518   -0.87327177301371
H         8.11119485593521    3.68152283662073   -0.26378653428283
C        10.81858710291016    7.02778621870923    2.17477477665733
C        10.89560817158351    5.85862322680612    2.94600455001689
H        10.09507886529856    5.13552217525896    2.90604273690466
C        11.94296386336461    5.63813959187532    3.80365196987192
H        11.97132147536675    4.74172854004097    4.40459643564381
C        12.98655912665431    6.57043257543125    3.91813147458151
C        12.92071465601228    7.73613707176559    3.13832794594874
H        13.72153433892625    8.45726198814500    3.20309886692718
C        11.85880165513094    7.96054626662765    2.29979741109698
H        11.85522829345578    8.85307712234603    1.69264762954781

