43
CSD_code = ERIKIA | q = 0 | S = 0 | Stoichiometry = C14H16N10O2Zn | MND = 6
Zn        3.33227404677157   13.90113578248117    0.00285704445736
O         5.25099785869371   12.61395794411983   -0.54599755234913
H         5.37638810929410   12.39576536670816   -1.47322311937106
H         5.85954361945798   13.35151921418435   -0.36277174695469
N         2.20858346469902   12.50154481930857    0.65455844294944
N         0.87231720568951   12.45360350580060    0.54736572152311
N         0.41905836185251   11.62443272062079    1.41266442702432
N         1.40179519277769   11.10700757862725    2.12777183786589
N         4.20818548408115   13.91851618493927    2.03054357975246
C         2.50645537415055   11.66203462495781    1.65660879723715
C         3.89187832139655   11.51019457247822    2.16833385293914
H         4.54744206760441   11.26378457024858    1.32942473430358
H         3.92212610467082   10.71223148773637    2.90847597054651
C         4.34947682465572   12.81169871633554    2.76141643976296
C         4.60816087400013   15.07992402431477    2.53569836499792
H         4.47886327325840   15.94159545184714    1.89794166923404
C         5.16601851430999   15.20568196887048    3.79432513300785
H         5.47705728077921   16.17147394955550    4.15799032308169
C         5.31179913923453   14.06278422841502    4.56556194962347
H         5.73970345554582   14.11384165160941    5.55557768958537
C         4.89558014773847   12.85298761864794    4.04119082179148
H         4.98991851298213   11.94247907078319    4.61198505340056
O         1.41668726938591   15.19411936855654    0.54672032046141
H         1.29076355820206   15.42030143084595    1.47188544682046
H         0.80605334953031   14.45665545869762    0.36827003363855
N         4.44916678762635   15.30571316584440   -0.64917574838522
N         5.78489329201913   15.36101304799310   -0.53839927300454
N         6.23667896523899   16.18632009205422   -1.40814226701889
N         5.25353905009808   16.69395061981498   -2.12974273984375
N         2.46516295694019   13.86874632741902   -2.02864661102996
C         4.15020575796929   16.13682980993011   -1.65801496602078
C         2.76592022405634   16.27822723370684   -2.17581491550616
H         2.10575084899740   16.52435428209122   -1.34048720209940
H         2.73379813193643   17.07266557967617   -2.91965104296283
C         2.31877328603573   14.97131562097701   -2.76485005387467
C         2.07523821663166   12.70234388178624   -2.53008653550511
H         2.20871706702001   11.84433895190918   -1.88817629556642
C         1.52297247072973   12.56705771170633   -3.79017123475193
H         1.22028290140625   11.59747909706853   -4.15080944200803
C         1.37183948242795   13.70556063208362   -4.56689409529682
H         0.94798049051254   13.64706059852316   -5.55824858357826
C         1.77751165685340   14.92057955907077   -4.04636274467980
H         1.67874100273778   15.82787247765046   -4.62150148419359

