40
CSD_code = ERIMIC | q = 0 | S = 0 | Stoichiometry = C15H19NO4Zn | MND = 5
C         8.46451594379728    4.38144957282270    0.39330880777011
C         8.04077311083569    3.66762334637797   -0.73019277290271
H         8.55780063069300    3.82690651163887   -1.66355116054600
C         6.96607559568681    2.78310604963044   -0.71219374331301
C         9.63692060177704    5.32597233205617    0.20928410070393
H         9.86538460780404    5.81649259177157    1.15129929326683
H         9.39263305282996    6.07642332357514   -0.53879546027182
H        10.50911391020111    4.77387941001591   -0.13373601750416
C         6.60330862710092    2.09562048192159   -2.01391809627159
H         7.45060555214668    1.52035818904798   -2.38021509637124
H         6.34430678021363    2.83737596552275   -2.76597878837698
H         5.75720489493723    1.43353126702972   -1.85287353190359
C         3.43651841404742    2.84751904612101    2.47465989509880
C         3.05492918189111    4.13658788065133    2.09497150331319
H         2.00170680896193    4.35596241126817    2.01407249760375
C         3.96515459783885    5.14368919799064    1.78703017923485
C         2.32573489933106    1.85267850463825    2.75202173478147
H         2.75228316320058    0.89709137201317    3.04375392717255
H         1.71891009642494    1.71940407598693    1.85951653970990
H         1.68400573310018    2.22279155151979    3.54845455494914
C         3.40481670171241    6.48872837750538    1.36785600909741
H         2.76079054209665    6.88487988503797    2.14963916666138
H         2.81277486035858    6.37748777979747    0.46224190337740
H         4.22078003804156    7.18156187083998    1.18249539250721
C         7.79165893190625    3.63258354418231    4.49097830791557
H         7.79744910488414    4.65729196331223    4.15231998803911
C         8.42582169129353    3.24807237789297    5.66101383524420
H         8.93425567010176    3.97988420779046    6.26899135863165
C         8.39288871504636    1.91235502142054    6.02882066235052
H         8.87819247537894    1.57615929123728    6.93348315869297
C         7.72300653584152    1.01786460844993    5.20929107208721
H         7.67241945081527   -0.03122535604704    5.45536737508920
C         7.11400703556814    1.49493403979334    4.06014051842899
H         6.56935388341822    0.84348722510110    3.39395886565228
N         7.15027256405704    2.77353159053982    3.71066840404609
O         7.96529742361188    4.29433606230293    1.54349628756308
O         6.26913167504887    2.49489292778290    0.30077765156342
O         4.62008704558728    2.45038629442960    2.61973001831779
O         5.22275156384948    5.03707577233415    1.83424000706254
Zn        6.22975788855908    3.42004943470574    1.97087165153007

