103
CSD_code = ERIQED | q = 0 | S = 0 | Stoichiometry = C40H45F6MoN3O6S2 | MND = 5
Mo        1.75389064370050    0.49763471054994    8.60554808597459
S        -0.15580804650743   -0.21377975445412   11.04445263234859
F        -1.78345240402001   -2.42654446924085   10.60372996308056
O         0.08253116596433    0.13845134658295    9.63053869389039
N         2.18232622673229    2.10178070352148   11.41048226464395
C         1.79090066317761    2.00163285668454   10.15029668535247
S        -0.33040476150213   -1.58757456320893    7.97770619163439
F        -2.74251720061190   -0.49100157145347   10.67640402172950
O         0.89804173642637   -0.97496545598865   11.63061713186609
C         1.44420638867992    3.12657858495224   12.14994462531423
H         2.13568599426893    3.80661585254158   12.65360114510206
H         0.79706861794638    2.64171791713929   12.88365151698382
N         0.88725344287296    2.94771308289140    9.90138236710839
N         2.82481724066464    1.25818101703236    7.48130191501519
O        -0.54070082042206    0.95565340320556   11.79073617880703
F        -1.93700149009402   -1.37397366040662   12.45942130545358
C         0.61247077712597    3.79936416140868   11.05423370470306
H        -0.45316916403337    3.79509940796344   11.28955630842488
H         0.92412140020852    4.82878035773177   10.84211954102718
F        -0.98885280986232   -2.26644013083363    5.47789267146570
O         0.57530833753406   -0.67169028446418    7.25851242350748
C         3.21113066194262    1.30009619183969   12.03705377945295
H         3.30245897704849    0.39496485802859   11.42032705492749
F         0.66766657417002   -3.37499691806975    6.29277816433438
O        -1.65370703416394   -1.08396595188142    8.17602574399706
C         2.78734289292926    0.88415318505264   13.44746482798831
H         2.75170289003351    1.73886805996095   14.11906145666186
H         3.49333507195030    0.16404535402370   13.84785969110041
H         1.81183094473215    0.40741765540907   13.39614309668293
F        -1.34831361862868   -3.85911749576141    6.88457781820286
C         4.55306405036774    2.01285608882743   12.03168733613576
O         0.30035003619537   -2.32836352340397    9.02413875267421
C         4.72338410056443    3.27759058900412   11.48534725426720
H         3.88988486464972    3.79475734134486   11.03621296279919
C         5.96465766407080    3.89219393769943   11.49232052187753
H         6.07390299318869    4.87880767176719   11.06643383496029
C         7.05914452541967    3.24921656861215   12.03994246649001
H         8.02591024159740    3.72904722513728   12.04664393210296
C         6.90448453249661    1.98063408832165   12.57306743233224
H         7.75386628606085    1.46372697984291   12.99356368171683
C         5.66457317724594    1.36947796820006   12.56696856486278
H         5.56266991434066    0.37621552578118   12.97490191411295
C         0.40826234911627    3.25112821319970    8.59266358565706
C         1.23442016956502    4.02459105077988    7.75803482876613
C         0.78829546859060    4.35795784382791    6.49234026703800
H         1.42614226124307    4.94264633384335    5.84629541485253
C        -0.46059398824666    3.95161937337591    6.03350534133585
C        -1.27541172015425    3.23119909064372    6.88919410033395
H        -2.26048422478820    2.93119849396786    6.56221913701774
C        -0.87474878338303    2.88075487304083    8.17729696221127
C         2.55434149512945    4.54304378153535    8.24583014919837
H         3.16030555719527    4.86894339166139    7.40530954290445
H         3.09692285204037    3.76971357987398    8.78543105937100
H         2.40027162868435    5.39834164032678    8.90594938480447
C        -0.90191209708960    4.29545295415189    4.64564011237914
H        -0.38268966866176    3.66162619381366    3.92784166803192
H        -0.66022020222299    5.32993724520289    4.41100399793011
H        -1.97119416507726    4.14448897455251    4.52591434323999
C        -1.86439019740359    2.17711848526159    9.05521727235421
H        -1.52107036283297    2.07286744470293   10.08137167255628
H        -2.06390865165342    1.17596347346739    8.66472382071776
H        -2.80827002529163    2.72239622610964    9.05267293082232
C         3.48867827153010    1.89244548604453    6.50012320076964
C         4.74859673184863    2.48941053141675    6.71401125952857
C         5.38717815352350    3.11910513439899    5.65836748535928
H         6.35321985552266    3.57268632896879    5.82810728210379
C         4.81417514083007    3.17006139363248    4.40069159196365
H         5.32819479112042    3.66231714012970    3.58890224320596
C         3.57888401106475    2.58034742675264    4.18610661869817
H         3.13387660885039    2.61292800534983    3.20178326613573
C         2.90551026524987    1.94392115454610    5.21165176283029
C         5.39362768200622    2.45119181438357    8.06806381797691
H         6.38355916713579    2.00723116970816    7.99330796205614
H         4.78571603068696    1.85868570235265    8.75449883522731
H         5.51528025586425    3.45850249303452    8.46533392942489
C         1.58441284196784    1.28013651244709    4.99175315213499
H         1.23543970432294    1.43702411437334    3.97367853774631
H         0.83981162792698    1.66405706296346    5.69369355575409
H         1.66810192161654    0.20914969177352    5.18086790002449
C         2.93104714333606   -0.88293090189805    9.27523049281788
H         2.43566237903691   -1.43115713201078   10.07966099251721
C         4.23538851722127   -1.53206406826428    8.93662603627466
C         5.27138330721146   -1.17041933529294   10.01574386180271
H         6.19640083910728   -1.71918873028832    9.85372045019810
H         4.88134647239027   -1.44985193745161   10.99161993465894
H         5.47623925367667   -0.10266339560934   10.01445390475153
C         4.04347115793132   -3.06421242722907    8.96532757811910
H         3.21308393247091   -3.35520545108579    8.32835294692444
H         3.82534100800989   -3.39556722752831    9.97776680175310
H         4.94701313366277   -3.56125655128177    8.61571397261755
C         4.68037910034239   -1.15198117634088    7.53478624806077
C         5.94962888458181   -0.67289953654167    7.23879613398626
H         6.67068523034679   -0.51065434846799    8.02372795529742
C         6.32194912991457   -0.39697737678329    5.93267815821435
H         7.31253230664282   -0.01651115070425    5.72833560385188
C         5.43861718550181   -0.61466641297150    4.89406558574493
H         5.72965967073571   -0.40383365216478    3.87594456748583
C         4.17724563489083   -1.11446015039293    5.17264763513309
H         3.48922716380066   -1.31210683131359    4.36384555279518
C         3.79946122237715   -1.37517257543828    6.47705420681873
H         2.81369041461936   -1.77429034602337    6.67955240739766
C        -1.73236869826303   -1.22189169681742   11.13917466226863
C        -0.52827082983806   -2.85088632557008    6.59002665703844

