69
CSD_code = ERIROO | q = 0 | S = 0 | Stoichiometry = C26H25Cl2F10MoN3O2 | MND = 5
Mo        0.71550052524785    6.43691247049086   12.26346901904469
Cl        0.11492887652425   11.53563567249821    9.37463089740555
Cl        2.90837433835403    9.77227712850744    8.05236667721027
O         1.57591034857980    8.14873138648746   13.01066572746769
F         3.63677168456778    6.53293681756549   12.41343497761893
N         0.05629769362732    9.11649356556845   10.59175933321072
C         0.70866373494276    7.93376650376826   10.65277269443146
O         1.54838193769282    5.73263717749473   13.92202119389248
N         1.74894942293800    8.05565047126000    9.79440206386202
F         6.03834581304674    6.81416173594311   13.72058078248098
C         0.67018262554702    9.96287374115574    9.70234365574754
N         0.43739276220367    5.07744882358735   11.22930830090001
F         6.33653523174501    8.77006569342014   15.62460417608668
C         1.74411621210570    9.28963908263583    9.19411268537587
F         4.23851833540297   10.42218993479174   16.18966496387312
C        -1.11822175784216    9.48892525573762   11.33061081753704
H        -1.84680859046962    9.94105108934988   10.65735315613187
H        -0.86033407309816   10.20497823338502   12.11262865520445
H        -1.51647309493654    8.58099416218178   11.79066352569755
F         1.86273667900334   10.13515851165240   14.89462130229640
C         2.75722547704841    7.06370267742933    9.53514671442506
H         3.74310304379121    7.45123045130109    9.79885699290602
H         2.76222451535030    6.80351889804518    8.47502456437545
H         2.53237920136232    6.18349121497116   10.14113305823184
F         0.79221468342484    3.12331567172738   13.68094507689621
C         0.42321398957550    4.00467397748445   10.31186220574735
F         1.39504367839655    1.33596074784630   15.64900698964379
C        -0.63448519745196    2.95232431854548   10.69621909662728
H        -0.41752377426471    2.55509928952261   11.68187502170150
H        -0.61908695962806    2.13726159455752    9.97719364721197
H        -1.62519626135444    3.39588289056629   10.70425255270886
F         2.77340258710863    2.14734622710001   17.87107106339745
C         1.80608057358999    3.32272526807010   10.31590808845608
H         2.57875520372803    3.99565261088115    9.95038291269272
H         1.79064288913686    2.43740555760163    9.68599301519215
H         2.05290201954998    3.02728134388944   11.33273206053676
F         3.53478870762398    4.76592479727965   18.09482582366546
C         0.09932989493696    4.52767191218446    8.89722657334967
H        -0.86837494856676    5.02458130423444    8.90070413816609
H         0.06771621951824    3.69851380309416    8.19543057708752
H         0.85064969518447    5.23944633000233    8.56643319648463
C        -1.05410364051259    6.79833796277046   13.01333774216861
H        -0.99120509233541    7.54607590158883   13.81507418998890
F         2.92801465681716    6.55065280225327   16.13996087551928
C        -2.41189341150394    6.18100306924354   12.94559340062092
C        -2.84952710608078    6.01358229004293   11.48460003602261
H        -3.15320266966216    6.96946496894169   11.06246300785366
H        -3.69206131609823    5.32992466912516   11.41559679026681
H        -2.01131378633678    5.62749526403873   10.91112996759536
C        -2.29053591968534    4.79614295085346   13.60541327045503
H        -1.52006708161166    4.22495272298888   13.09488546027554
H        -3.23754394511531    4.26370150792603   13.55509956873802
H        -2.00986570779709    4.90432840576727   14.65120222422543
C        -3.46633303069345    7.00329255614249   13.69919336957599
H        -3.20077964659580    7.09861384797997   14.74943915322471
H        -4.43740407851789    6.51699220524162   13.63715524250872
H        -3.55849137488945    8.00216442744047   13.27594407404851
C         2.68476299060967    8.30367327290613   13.64274847636055
C         3.80496580678196    7.49050147603078   13.37722745366768
C         5.01633420288383    7.62399673036442   14.02731792197467
C         5.16634973954175    8.61470886644829   14.99157719314406
C         4.09296245551993    9.45510392793399   15.27865932430884
C         2.88765034407903    9.30715835009830   14.61565442708817
C         1.83748925730024    4.88873201954092   14.84487926061492
C         1.46663201298001    3.52659576746872   14.77882532212893
C         1.77344644507259    2.61469008514303   15.77152171552884
C         2.47550727470616    3.02457208515987   16.90189000376355
C         2.86201655760766    4.35753287968734   17.01368218657577
C         2.54852212028167    5.25867064293258   16.01209036676857

