99
CSD_code = ERIYEL | q = 0 | S = 0 | Stoichiometry = C41H52CoNP4 | MND = 8
Co        6.49143230945536    6.05689766643013    4.44284548798218
P         6.69036532643589    6.17020933558790    2.17353822687928
P         4.54928672992741    6.48719811979207    3.33723393464966
P         4.76799962873421    5.50175688058787    1.40842982620226
P         5.17659522726544    7.64199152473980    1.58656585999413
N         6.10750300173239    3.12864023187623    4.46240792375646
C         5.95094164773584    1.78805743765181    4.39714354507304
C         5.68857848485411    1.06447216762410    5.56898131828117
C         6.05194710882855    1.13998365714860    3.15663866791883
C         6.23812817269188    1.92261229041418    1.91264026526057
C         5.67212157255774   -0.96557135826602    4.26832574618295
H         5.56835310359925   -2.03896603355216    4.21893952461059
C         7.48580930877128    2.47158929297374    1.60512243104253
C         5.14591947286107    2.09179703332238    1.05357968591132
C         3.78266496082495    1.53421348274642    1.40104753678734
H         3.89189465567055    0.82391834954368    2.22604300866404
C         5.32531297545987    2.81892175855479   -0.11513417417741
H         4.49674343656829    2.96301240289034   -0.79117455029827
C         5.92707619185739   -0.24153143443420    3.11621443754211
H         6.02183839319126   -0.74421735600033    2.16485134997678
C         5.57856155703974    1.74592007341331    6.88045420265015
C         5.54004809007202   -0.31302636871258    5.48191462964370
H         5.32344782768005   -0.87081246141810    6.38139868252283
C         6.29731657053874    4.28872267337526    4.47014869930450
C         6.72952613620391    8.07638301361794    4.95947064725993
C         7.62607171084814    3.19596079442817    0.42870594276954
H         8.58338666986837    3.62308910536118    0.17206692387890
C         6.13361594161654    7.43050905013211    6.08397678189987
C         8.05593017689136    7.55416152276175    4.77549140403788
C         6.62145841912460    1.61639464578111    7.80554803169386
C         8.68904906551048    2.22176826130485    2.48578286367763
H         8.35904508648509    1.73527072902495    3.40898087866409
C         7.00344349796166    6.39112546761315    6.47227339784152
C         7.89673328600741    0.89093719123480    7.43479925470777
H         7.69030424086776    0.22819325799376    6.58922212527012
C         8.21692814656941    6.48910059379317    5.67143074216653
C         6.55555813973234    3.36757160759185   -0.42684096969199
H         6.67832990353666    3.93091176876727   -1.34024374860885
C         2.86539826748250    2.66156665299770    1.87912868108285
H         3.31426174269923    3.18438968262052    2.72298700242862
H         1.90334167646971    2.25938956289566    2.19054316607722
H         2.69877969808257    3.38442175383101    1.08309972984944
C         4.43065874162556    2.47876730809658    7.19394014978938
C         3.29264760560039    2.63059423243624    6.21061189669364
H         3.57931613127062    2.17563347360274    5.25821079126317
C         6.49284383122524    2.22165800137825    9.04729268589216
H         7.29049142624517    2.14561378326354    9.76961420775800
C         4.32873911895965    3.05222063329474    8.45457872278017
H         3.44119873577222    3.60645160458104    8.72033878103514
C         3.15107808285249    0.78301175578117    0.22779884492338
H         2.88531332401742    1.46006144622160   -0.57945330426620
H         2.24434610033262    0.27946664374197    0.55676937898879
H         3.83917094645533    0.03531440742960   -0.16107452335744
C         5.34829047345786    2.92291267269329    9.37660312104281
H         5.25652695092734    3.37672916952564   10.35276947771509
C         9.40231854438214    3.51877334631984    2.86592713190038
H         9.85783602315978    3.98648582955849    1.99718858353988
H        10.18556197643546    3.31216601822625    3.59271575538342
H         8.69653727720219    4.22343447829342    3.30510004696148
C         9.64978581241423    1.26284598309136    1.77558400049181
H         9.14514769753269    0.32890544966163    1.53669857011431
H        10.50219391971110    1.04190978075125    2.41458262382548
H        10.01590845349170    1.70078167117886    0.85017755873020
C         8.94140347923681    1.91419243211858    6.97913028427675
H         8.56332234338442    2.48795726376121    6.13445511293724
H         9.85652412764290    1.41151920810255    6.67282237167968
H         9.17949774735134    2.60016202535642    7.79024124806343
C         6.88081954160059    5.54116224085335    7.69743197258150
H         5.84096480552588    5.40658600575323    7.98338447050940
H         7.40809072430592    6.01900676335322    8.52589576815307
H         7.31386592188023    4.55601940295672    7.54319888016067
C         4.85016232893746    7.84637903218158    6.72965826921575
H         4.04545822320545    7.91785730650776    5.99544433930263
H         4.96874517209199    8.82653874481796    7.19471247900646
H         4.55119755760217    7.13414819456203    7.49422186891881
C         6.23314063539342    9.34776281315745    4.34881567282781
H         6.59281524306957    9.46332961559088    3.32618866088280
H         6.59699021100747   10.19692335447358    4.93158090108788
H         5.14403550275032    9.38261351126938    4.34044702697061
C         2.98117543781276    4.10615733197790    5.95252439139083
H         2.57954131863000    4.58507804423068    6.84185472363459
H         2.24642034064710    4.19945165712104    5.15552139354335
H         3.88321586021883    4.63900813326920    5.65155612432022
C         9.07636744789662    8.13823003373853    3.85177243545658
H         9.94328285183480    7.48780674630336    3.76645197850809
H         9.40542601952073    9.10873150754675    4.22743797256255
H         8.66346135138869    8.28767329951074    2.85231863127829
C         9.48976740607883    5.76363075142976    5.97670265196276
H         9.29470474644799    4.74718859235575    6.30733317330175
H        10.02065891075445    6.28341425300300    6.77749333915259
H        10.14023626635882    5.72368836072841    5.10620457898965
C         8.44393316480105    0.03024653489919    8.57361304328186
H         8.83607286581503    0.64102279010328    9.38265542240935
H         9.25412899369683   -0.59550565177584    8.20510932414574
H         7.66406540817129   -0.61475876301971    8.97241720307925
C         2.05111849552035    1.89210490752755    6.71805657934909
H         2.27308391362736    0.83732111151884    6.86764374082886
H         1.24427296949353    1.97652820695836    5.99338339401957
H         1.70977393287695    2.30795252059332    7.66286694959268

