79
CSD_code = ERIZIO | q = 0 | S = 0 | Stoichiometry = C33H42NOPRu | MND = 8
Ru        6.42309287791842    9.11979688948775   11.61187250777198
P         8.45404172510541    8.64887160408575   10.56277845797816
O         5.04398850479402   10.47598873387790    9.34923458588056
N         7.85746591046408   10.66115696469489   13.37605617399195
C         7.12736508591053   10.88321767706617   12.35779168333923
C         8.32736222920335   11.66267824832325   14.20294859380313
C         9.04199420988407   11.38572484334231   15.29192117710445
C         9.57858725385691   12.41358868452538   16.22760333862720
C         6.80301261257104   12.19499046925176   11.79749142934056
C         5.59099033905465   12.77141331630491   11.71542210686082
C         5.38224770971759   14.02065838470914   10.97301570678879
C         6.07211660562140   14.27890769003783    9.78902516590918
C         5.86809027958066   15.45811339457634    9.09834240201463
C         4.97524193344691   16.40290603924080    9.57688425607350
C         4.28089890136215   16.15600270839796   10.74975525928300
C         4.47795638820593   14.97511585428674   11.43937575741450
C         4.41469984791496   12.21234917141368   12.40354531287446
C         3.21245750553672   12.04589466906616   11.71924443729321
C         2.09355339216517   11.57012527328135   12.37631789658886
C         2.15320064674272   11.27239611084002   13.72899004204283
C         3.34179437074669   11.44294480263329   14.41865610275703
C         4.46786050442811   11.90441843431511   13.76025371454846
C         6.46494428857117    7.73979802595281   13.45348555074118
C         6.02052219641327    6.94921892840038   12.35009367667216
C         4.80238777496631    7.47296184056333   11.89373663270587
C         4.49725899224289    8.61822771421859   12.68623584709400
C         5.49383446624573    8.72594002567525   13.68902163850915
C         5.65711716701424    9.97858760715933   10.19553452099039
C         8.36534980092705    7.64652648385321    8.98184355563216
C         7.77504922876127    8.44211943067056    7.82226672942516
C         7.49557587381120    6.41921719592473    9.23666658123617
C         9.50731747817126    7.53985910658534   11.65853057458098
C        10.57337992874544    6.66141507176046   11.00337413944285
C        10.09998291698616    8.37079363951504   12.79547755031926
C         9.56996878425216   10.10445938871617   10.16536687044293
C        10.92633856903118    9.78862754930050    9.53919652440508
C         8.84039961659122   11.14793115926883    9.31568634252406
H         8.08661248611346   12.69639198596917   13.94124858606335
H         9.25551611296468   10.35368642118830   15.53373670820468
H         9.30884730944005   13.41541758948487   15.90108398601395
H        10.66537127720987   12.34338198545073   16.28518943348242
H         9.18713880742788   12.25461379334249   17.23299151509081
H         7.65177908977189   12.71183855044369   11.36020364921721
H         6.74998786429111   13.53550727823469    9.39597367343343
H         6.40376778680597   15.63968959103243    8.17740777029609
H         4.81739221196627   17.32440357728381    9.03581231073288
H         3.58089241811933   16.88754391421536   11.12743301079932
H         3.93631020958260   14.78865839696636   12.35598001308629
H         3.16670372938827   12.28439590267063   10.66662272415762
H         1.16806070914331   11.43541700638632   11.83459714121663
H         1.27474916265864   10.91057611150648   14.24417075720225
H         3.38910672143639   11.21796427210888   15.47512690219114
H         5.38997432796867   12.05753079169234   14.30294035953846
H         7.26717838154568    7.47650712081701   14.12915636493809
H         6.45069145778996    6.00461188718323   12.04403925504162
H         4.15488768813474    7.03367472337646   11.14653803176107
H         3.55136781520611    9.14323466224733   12.68122859968673
H         5.47386221578169    9.40508943658952   14.52835090365098
H         9.38220316048043    7.33098835100214    8.72554206774837
H         7.48549185318332    7.76365350233987    7.02088567861780
H         8.48985644378497    9.14940478198182    7.41475953505103
H         6.88813249240027    8.98307186983377    8.14766415286382
H         6.48526337571936    6.74184200007690    9.49040601787277
H         7.88400377322185    5.80802466808086   10.04829948279300
H         7.44352407728467    5.79986871776158    8.34205084922087
H         8.76547685899749    6.86384545249727   12.10279417062082
H        11.30523492344675    7.23972046943819   10.44948154114406
H        10.13851802368622    5.92382037006738   10.33391495821572
H        11.10204534743875    6.12125102375465   11.78888203469306
H        10.42768400269632    7.71768135333471   13.60363874869422
H         9.35226883593484    9.06411531002197   13.18511315950108
H        10.96170821739267    8.94215494082866   12.45863611820287
H         9.72919563706399   10.53985079382388   11.16088258671308
H        10.81765971251981    9.19670660503350    8.63347138303785
H        11.57959900752161    9.26389250869576   10.22944511331990
H        11.41727687582968   10.72353440777091    9.27074854156668
H         9.23062660508544   12.14113328410239    9.53299581050790
H         7.77122675135881   11.13285760780992    9.52707712031458
H         8.98776032523179   10.96500385214958    8.25533639044540

