70
CSD_code = EROGAT | q = 0 | S = 0 | Stoichiometry = C29H33F5N2Zr | MND = 13
Zr       -0.60076763745284    1.79016608964499   20.28840982954673
F        -1.78068114364190    0.59953659064157   21.18306982296762
F         2.08530576419775    2.62739886871258   24.30260908940386
F         3.52372616360230    4.78695463924081   23.75133960381106
F         3.54822051598223    5.86000828135027   21.19840908934625
F         1.89487638672284    4.65554420374490   19.33456514348755
N         0.80209714776035    1.19852607165207   21.92635230392238
N         1.39281097567387    2.99184863520168   20.75179258073280
C         1.45082404865815    2.33732658128049   21.96733189703600
C         2.16598040507797    3.02098415747935   23.01279524133948
C         2.86673317853805    4.17506793704863   22.76326543981637
C         2.86024249745995    4.73898509300619   21.47697549769537
C         2.05823168721356    4.11015299001816   20.54842868084550
C         0.86221172986027    0.13924533968485   22.94268610550559
C         2.29459769580437   -0.10972445194062   23.45040712408201
C        -0.10886308120078    0.45021930636330   24.08865906754655
C         0.40359783152956   -1.15476341753209   22.25079532795639
C        -1.12395975653772    4.13700118644853   19.68652640600182
C        -1.10217815290182    4.12555024342592   21.10660002006651
C        -2.20779098580152    3.36725097670001   21.55039778775766
C        -2.70505034956050    3.20014806895314   22.95959426605719
C        -3.83512414946908    2.16812769198642   22.99750414692966
C        -4.85050577627392    2.44996577329488   21.89084862782158
C        -4.23004675518087    2.18536631829456   20.51566183308146
C        -2.92390130979520    2.92658067425894   20.41260120761103
C        -2.25566197499394    3.39812111464788   19.25886747841669
C        -1.38878413572244    0.42841561365455   18.38882653082705
C        -0.37956487561648   -0.35472909791620   18.99992833061695
C         0.85530426377241    0.30876466854591   18.82483446893086
C         2.24224552912830   -0.18924366261279   19.13536027622807
C         3.21376045148503    0.34418080504477   18.07890922598704
C         3.08601280951921    1.86162387866911   17.96507152585292
C         1.72195191987768    2.25088859140297   17.39108820025358
C         0.61627398710017    1.49537129985077   18.08224212514009
C        -0.77337115543506    1.56410781591033   17.80425066938728
C        -2.66389084370704    3.19668420683188   17.82334361407259
C        -1.48395596157392    2.62680935169812   17.00964149532340
H         2.37142103014155   -1.12948931617210   23.81909167170188
H         3.00640679445734    0.01000468748065   22.63454650905977
H         2.57588074218234    0.54797641877508   24.26351284496142
H         0.17096590279775    1.35871125851942   24.61447515745805
H        -1.11150839937909    0.56823893114588   23.67922744974832
H        -0.11344942120535   -0.36932792846041   24.80254820478045
H        -0.59833364571024   -1.04063882685870   21.85045153312290
H         1.08987835430710   -1.41177566404989   21.44723490905864
H         0.39306931110949   -1.96737543182239   22.97373084790555
H        -0.51141032171020    4.75938537653401   19.04754377974492
H        -0.47103774074719    4.73793311797556   21.74301706557581
H        -1.89200820128164    2.90387407648089   23.63180296518298
H        -3.08773588381433    4.16436263126598   23.31825726283137
H        -3.42358246974467    1.16840159272012   22.84949993224054
H        -4.32499814771289    2.19544481253928   23.97312771921927
H        -5.73177192602764    1.81965563776376   22.02407468810917
H        -5.16757607509614    3.49379761446937   21.94998369942724
H        -4.07150890208058    1.10660766420767   20.39674825036583
H        -4.91662808514444    2.51467699779355   19.73039415861597
H        -2.42924926221050    0.14124394234295   18.28640412881810
H        -0.52482812962726   -1.34038634711537   19.42180371445205
H         2.56951051942600    0.15601841530956   20.12500977829015
H         2.25747962673847   -1.28303168659458   19.13893878367578
H         4.23761695782820    0.07338176566146   18.34501760163784
H         2.98282834815191   -0.11042330412556   17.11330009984275
H         3.21336735729101    2.30003894484319   18.95760973426049
H         3.87478739131932    2.25639987755650   17.32151373916017
H         1.58554888168816    3.33233093221793   17.44671469804562
H         1.70221700833916    1.98213094079027   16.32703940720177
H        -3.50818781821547    2.50431700395209   17.77913069573763
H        -2.98706284004433    4.14448270230691   17.37968640577901
H        -0.78255291827610    3.42845265062263   16.76563032654609
H        -1.85695498184526    2.21591807723516   16.06544215604121

