57
CSD_code = EROLII | q = 0 | S = 0 | Stoichiometry = C19H33N3SiTi | MND = 8
Ti        1.37959026715661    1.82118626493764    2.99373342167216
N         1.64515858688135    3.33884653474328    1.81847590630608
N         2.67538067441002    0.56983991748932    2.55420452187328
N         1.99704432622851    2.46304213679136    4.59760455513798
Si        0.03573182594337    3.77822395922474    1.36620653267215
C        -0.72489288048824    2.33723143729627    2.31772801112604
C        -0.47146044986025    1.01379750994808    1.87857784218422
H        -0.44399574888516    0.71705872707039    0.83317539287323
C        -0.40581440331346    0.13308951381301    2.97054400207453
H        -0.36391996567906   -0.94969846032227    2.91856229481245
C        -0.70366581444756    0.88544998130963    4.14085532102531
C        -0.87182771379671    2.26156519487429    3.73734425995836
C        -1.26665008738631    3.21043842476091    4.69484092229198
H        -1.42686205869715    4.23999300523155    4.40250758106176
C        -1.51236738823287    2.80425925643858    5.98538574744402
H        -1.84114991628629    3.52382404479891    6.72297333195617
C        -1.36792260165456    1.46138522309844    6.36849630347449
H        -1.59238053312852    1.17996020379809    7.38807987175572
C        -0.96243852216874    0.50630299788886    5.46748530209945
H        -0.87764372758829   -0.53253376763065    5.76426556129642
C        -0.56334074530778    5.51306877956508    1.93391727368236
H        -0.15821880880303    5.78405985259141    2.90424877800718
H        -1.64577834251244    5.54635486993897    2.00317999257226
H        -0.26091104118066    6.27690364982195    1.22523974425914
C        -0.43765792878963    3.64572079338114   -0.49564101333337
H         0.02243444081130    4.43872985284753   -1.07628014976562
H        -1.51147214951000    3.73160949673891   -0.62758895854076
H        -0.12824414842806    2.69911477972083   -0.92944110328750
C         2.87627856250486    3.81957633315901    1.22211127967226
C         2.74547376129803    5.27765056821064    0.75645967219048
H         2.02825539789747    5.35496157194071   -0.05504169266869
H         3.70722000501439    5.64762519062254    0.40825209581454
H         2.40654338795991    5.90111291365190    1.57959533524027
C         3.23347632232876    2.93886213178848    0.00993642506334
H         3.41392823501888    1.92171451485504    0.35132346682193
H         4.12508381868181    3.31202483895300   -0.48971602335541
H         2.40924093095038    2.93641571592379   -0.69936644086569
C         4.03009495061871    3.73958756151361    2.23772084684458
H         3.92934047934864    4.51957355783244    2.98908323483111
H         4.98449392895267    3.87026041752901    1.73075880297952
H         4.00351636318538    2.76585386541030    2.72948282157170
C         2.47923754126319   -0.33899924037991    1.44672359394922
H         3.42367953764099   -0.49931611403066    0.89819494494806
H         1.74457182165379    0.05781875585283    0.74128289625458
H         2.14201028384900   -1.33397257977571    1.79357353847687
C         3.81768953045280    0.13890524174933    3.32795301596399
H         3.64134954422639   -0.85316764854292    3.78319392248008
H         4.04108532126766    0.85400275902768    4.12074909005869
H         4.71151945235034    0.04341761676074    2.68723671455566
C         1.97925576491645    3.85509472086822    4.97189079913718
H         1.16151490397510    4.06166601647400    5.68457586376515
H         1.83186042747556    4.46789603694810    4.07982700628410
H         2.92384621513368    4.14619013141269    5.46220564543781
C         2.11210307362942    1.62297000779745    5.76643313841094
H         3.09024544957371    1.76046017767664    6.26052124159682
H         2.00582715776938    0.56835110300231    5.49031478505663
H         1.33713268577408    1.87033965360091    6.51054273279646

