59
CSD_code = EROSEJ | q = 0 | S = 0 | Stoichiometry = C32H24PtS2 | MND = 6
Pt       20.37587086128269    2.16709703834839   -0.14956637776674
S        18.57414865655423    0.55617740862926   -0.03706236077252
S        21.09383894419774    1.30277209962689    1.93294510386160
C        17.68932485031522    1.01432427769830    1.33877802516727
C        17.86335335948255    2.09884566991533    2.20533946163010
C        18.90802435911471    3.06131894210241    2.21789505422664
C        20.30110205090998    2.83906793283982    2.10633330355397
C        16.70406456852750    2.14664228966359    3.09677149232577
C        16.33930199732365    2.89051148459343    4.19331813047876
H        16.95016725671739    3.69839558160254    4.56885236466841
C        15.13114772927385    2.57775739398690    4.84740926943457
H        14.84905261102382    3.18117772054976    5.69929110650190
C        14.30784780130806    1.54911272386814    4.45925037231154
H        13.38881982208603    1.35346070384226    4.99270920545744
C        14.67395524775703    0.73165808138890    3.36469972366419
C        13.99642273573362   -0.38950552566340    2.83400884221397
H        13.06022711879755   -0.70407192108545    3.27316490823570
C        14.52771538121747   -1.08135128390782    1.77120404740039
H        13.99458526586776   -1.93893766258300    1.38515755783859
C        15.74935143509150   -0.73292324393136    1.16498596086630
H        16.13814784628212   -1.31912557889972    0.34578752254864
C        16.42420634394915    0.35745417136248    1.65285495057110
C        15.86655654829224    1.07133723062029    2.73018879457719
C        20.99865003171033    4.09676563247467    2.37929283091045
C        22.30997309028361    4.47987231146388    2.52856651069590
H        23.12165564500227    3.76975667655397    2.46485604371406
C        22.58488526056598    5.83648511600226    2.78456953153448
H        23.61902277222182    6.13270145624412    2.89282327609369
C        21.60320841397663    6.79186367001934    2.89350024677127
H        21.86511966676581    7.82464888433900    3.07298811769115
C        20.24150105550332    6.42390829204210    2.78695520683851
C        19.09781873439822    7.24862597085555    2.88338316225016
H        19.21479235635996    8.30760328086379    3.06370602439552
C        17.84389475200178    6.70373397075687    2.73977710294347
H        16.98105070515954    7.35225101293453    2.80037340686530
C        17.62221143784505    5.33041817363002    2.52529993898444
H        16.61228790035704    4.96328645387200    2.41770523357179
C        18.71053914151341    4.49225149259407    2.46090053063761
C        19.99406612299753    5.07175944103491    2.55671918319274
C        22.23950851539012    1.92468343550066   -1.32613671637219
H        22.75108648491044    1.05532401896902   -0.91238044232814
C        22.35054524289142    3.12197177133430   -0.64155764449523
H        22.94309574801790    3.11378563084619    0.26913299195877
C        22.14154431555396    4.48589776457717   -1.26078292181991
H        22.78805376640657    5.20236544242030   -0.75074701365280
H        22.45426212532566    4.45444333368590   -2.30530846275912
C        20.68740726814397    4.99527854426914   -1.14606917164871
H        20.48594054826326    5.71721859180881   -1.94497632012274
H        20.57725557438031    5.52901867586182   -0.19844946940930
C        19.63455875543162    3.91218928959439   -1.18886946469484
H        18.68808429443038    4.19769877297436   -0.72419484128958
C        19.62309725154935    2.83927944863018   -2.07487945108513
H        18.66831695119453    2.33890904540256   -2.24027911746630
C        20.63621983343701    2.66037854702530   -3.18577132893554
H        20.14241163769352    2.18905273391438   -4.03699579402280
H        20.98155138971889    3.64079550725528   -3.51530216540787
C        21.82879605391468    1.77473443118848   -2.77071503829810
H        22.69102341388684    1.99328134395474   -3.40984997676215
H        21.56083095174062    0.72866630055820   -2.93430045746418

