56
CSD_code = EROTOU | q = 0 | S = 0 | Stoichiometry = C19H33Cl2NTi | MND = 8
Ti        6.20439224731474   14.87184398950513    4.23701947944668
Cl        6.77955536357114   13.82917621516943    2.38120727055711
Cl        7.20287017427058   16.75652226154279    3.70333640684412
C         4.46512351064647   15.84355141219551    5.38249648717898
C         4.55302730318356   14.48782805533292    5.81164761476809
N         7.31918451187180   14.23157132028068    5.45294520665933
C         4.31751884876238   13.65797104521902    4.67645790456662
C         4.14980797782571   15.84503334008379    3.99470127465969
C         4.53794531634318   17.08442529983616    6.22473638135852
H         4.81058793580960   16.85311159734513    7.25184731190909
H         3.56820135871951   17.58730121892956    6.23213363904175
H         5.27656397850967   17.78130296512253    5.82366841421288
C         8.44951816970104   14.01478194735143    5.94623347236833
C         4.04420408419283   14.49687257879412    3.56148538125980
C         8.99707031212119   15.00807870883697    6.98868196183062
C         3.84042469218865   17.06867278626801    3.18407641886104
H         4.00062634970773   16.88867906568893    2.12117018383002
H         4.46784100548683   17.90652675185449    3.48896104042157
H         2.79507115386775   17.35744312181441    3.32425297687744
C         4.66762018790733   13.97932856254319    7.22199797910878
H         5.56786529947146   13.37694667834230    7.35716179461806
H         3.80244546751975   13.35661150533940    7.45812145983750
H         4.69290077483391   14.80290469335548    7.93222300368131
C         9.22483687005200   12.79222954770274    5.41819928318466
C         4.23496031369843   12.15863196950115    4.68586151725763
H         4.68050713108521   11.74132553649703    3.78151936512274
H         3.19194575056034   11.83438483581755    4.73046725875872
H         4.75959260971238   11.75072083059842    5.54849100770878
C         9.90949333489327   13.25401650119550    4.11911871119272
H        10.73724294802780   13.92684958030258    4.32567135778215
H         9.19353754799211   13.77041016962893    3.47725706259045
H        10.29508901707458   12.38926841288088    3.58276425740395
C         8.19794857971269   11.70146910557682    5.07013121137220
H         7.48283696885269   12.07315749961061    4.33417816232636
H         7.65503755555755   11.39499594699941    5.96339833528123
H         8.70502647719526   10.83232663178905    4.65779015579650
C        10.27040296496567   15.67503391422739    6.45832329047105
H        10.58361782417523   16.45560396735959    7.14928608962864
H        10.06989518376766   16.13201397929775    5.49065253642283
H        11.09074333611520   14.97145836194508    6.35409615687215
C         3.56423513110485   14.03375026597144    2.21836249517963
H         3.96927182003414   13.05232170671765    1.97502038192707
H         3.85755582696178   14.72714478441418    1.43053123444792
H         2.47314266166462   13.96298327565617    2.21931605774212
C        10.26872963290021   12.16923427768022    6.34487377021168
H        11.06642848637522   12.86116620030904    6.59536061239772
H        10.72229564712514   11.32202280994394    5.83231613121329
H         9.81121961622826   11.79918871959499    7.25845240793677
C         7.94710210855459   16.10936465420660    7.20065725384847
H         8.32609574636385   16.84839002905111    7.90358689103708
H         7.03079460167175   15.68092265449673    7.60114389510568
H         7.71962680566986   16.60768753322860    6.25792096433700
C         9.24623592506151   14.34263817561858    8.34950386117971
H         9.32245752071508   15.11369517361956    9.11389318418957
H        10.16546553174425   13.76938123978108    8.36878964262800
H         8.41706250054727   13.68872658803292    8.61140239356100

