106
CSD_code = ERUDAW | q = 0 | S = 0 | Stoichiometry = C39H56BClMoN8 | MND = 6
Mo        2.84587495208066   12.89038642754763    5.05670804081807
Cl        4.52977812795631   14.46096562708573    4.67344497181157
N         3.80315644080727   11.40285982204835    5.07048351866624
C         4.50848771468456   10.28348531499326    4.87460978598046
C         4.11391211091527    9.29101512718757    3.93289911799724
C         4.92170601380489    8.18879840259668    3.71797268125997
H         4.61219156606282    7.43919294662168    3.00455523759175
C         6.12248595860718    8.02759173344549    4.38169907009658
H         6.74886911703734    7.17171231051311    4.17944558603073
C         6.50280337667139    8.96867222918194    5.32130059132429
H         7.43204706654902    8.83148438995638    5.85174383244243
C         5.71178519872394   10.06516974794266    5.60406426103694
C         2.81605830943105    9.39546049573211    3.16537812240708
H         2.35862304035052   10.35945479805806    3.40721527949528
C         3.05310572434479    9.34290541338787    1.65343727984626
H         2.13195419350658    9.57499517523140    1.12091866391322
H         3.38195188672884    8.35338395565247    1.34547939292936
H         3.81242322754474   10.06192574629659    1.35907173752529
C         1.84744133864511    8.28061764240184    3.57227412807563
H         1.67125913359257    8.29092534659515    4.64432822658725
H         2.25295142173341    7.30787946230647    3.30318743574860
H         0.89249099384899    8.40695814554100    3.06465822669259
C         6.11910375084876   11.05575966647852    6.66597477022053
H         5.20195674687862   11.54433541922968    7.01918030330672
C         7.03678688649232   12.12675937254195    6.06741233163635
H         6.49946357483673   12.71798018831268    5.32842625623854
H         7.89806247976663   11.66351648885827    5.58862519057007
H         7.39171913919517   12.79752149287066    6.84625881789615
C         6.79911705569210   10.37538111650149    7.85571362746524
H         6.87644856370583   11.07042572090869    8.68684543705616
H         7.80519857884132   10.05011213510405    7.60144263975547
H         6.22513802074064    9.51096873412049    8.18266734008324
N         2.55421949725521   13.29329270323274    6.75375016759256
C         2.24163145741985   13.85453759572347    7.92510629194064
C         0.89085335024005   14.02200537061164    8.33989641372760
C         0.61090062672614   14.63046586218720    9.54934967877165
H        -0.41830970315795   14.73923349363218    9.85895178197010
C         1.61416781974496   15.11624811268912   10.36617215380804
H         1.37409180875652   15.59815605762391   11.30210126472754
C         2.92985850206803   14.97995031300181    9.96339117529392
H         3.71456956500027   15.37008123789764   10.59472646948777
C         3.26641326568921   14.35268703684472    8.77901439817110
C        -0.25465638018307   13.55265846842746    7.47244237463637
H         0.16913320184130   13.16909735360341    6.53886317721069
C        -1.19512775081338   14.70877025893878    7.12031597253416
H        -1.71315110399098   15.07347279198095    8.00387255836085
H        -1.94209617987204   14.37738059641439    6.40008013487557
H        -0.63856483543501   15.53537499802259    6.68572533274295
C        -1.04191834562139   12.42905882230155    8.15232291835146
H        -1.79137811541009   12.02711930212169    7.47261648142365
H        -1.54803959343113   12.80280992438323    9.03953596752514
H        -0.37923014332951   11.62260048967629    8.45351652839243
C         4.72130480251303   14.22203195679909    8.39301875377253
H         4.77790100095908   13.64453783780688    7.46256414933097
C         5.49506441149001   13.47678544756932    9.48298531431026
H         5.04394867307362   12.50540312453975    9.67260480985507
H         5.49936118101879   14.03996013513865   10.41334378444772
H         6.52767159364604   13.33228612615507    9.17377139399711
C         5.36022302818282   15.58910850445650    8.13469011557197
H         6.41848144015158   15.46621746649294    7.91498969266956
H         5.25916264769841   16.23881182585296    9.00159547840030
H         4.89495051659346   16.07168130849674    7.27994178313568
N         1.45867929442838   14.58682898970441    4.49516220808677
N         0.40999526974075   14.36749685985202    3.67258673124432
C         1.39235392951774   15.85769119940863    4.89490230999499
C         0.27423361418356   16.46411925560305    4.31464520205916
H        -0.04863811167443   17.47681586486881    4.44576921415855
C        -0.32544122650001   15.48716125552714    3.54505352042534
C         2.36169393017908   16.51678225824574    5.80489467267654
H         2.58806309866553   15.87947522809376    6.65687317276159
H         1.94481749653157   17.45625058882587    6.16164887258309
H         3.29309184335355   16.72384533534565    5.27616566139359
C        -1.55842020083304   15.58552980320887    2.72191468141237
H        -1.99571111789552   16.57247761501653    2.84564370270334
H        -2.28635137670145   14.83614988609967    3.02724754082648
H        -1.33511172700863   15.43089156800506    1.66749616266868
N         2.77352537510530   12.79251575122590    2.83430119441323
N         1.60000375302423   12.84061181781399    2.16821225314841
C         3.74702548211055   12.69112198859597    1.92837712749076
C         3.18232934479261   12.68772770312427    0.64963337241615
H         3.70249136718708   12.61830354800774   -0.28389379737733
C         1.81796302425028   12.78355544996190    0.84110840257811
C         5.19215609097937   12.56884487846910    2.24934401046527
H         5.62142941086883   13.55026313704216    2.45347128702528
H         5.71738579352233   12.12886401624536    1.40387901744765
H         5.33979069723930   11.94571804378956    3.13005916624011
C         0.74220293944240   12.81377657002507   -0.18333768102666
H         1.18230310579203   12.70300018607520   -1.17060707006307
H         0.19888700695555   13.75661804370398   -0.14560834489981
H         0.03034253794459   12.00635041984612   -0.02156755189754
N         1.06408366815017   11.73974344241359    4.89453537376533
N         0.12235066104540   11.91949392322848    3.95196262873262
C         0.68491629662139   10.72063707970908    5.67064022040677
C        -0.54157749744523   10.24108498839672    5.21089696065046
H        -1.11252487729933    9.43128017202517    5.61686841970961
C        -0.86724579651987   11.02483774129682    4.11657820163386
C         1.49570823969823   10.23010651942646    6.81238515196509
H         2.39871639397521    9.73763247492070    6.45030707569203
H         0.91792540005567    9.52443054297613    7.40454000760528
H         1.81605169529142   11.06812018727091    7.43198827895808
C        -2.06658108968269   10.94089964162424    3.24432868606607
H        -2.70396755269099   10.12845013654763    3.58198755029915
H        -1.77882864200966   10.75735341454038    2.21077553621172
H        -2.63306034455827   11.86982160857583    3.27591274882912
B         0.27736876177777   13.04240638952895    2.91698421075564
H        -0.63701391101984   13.05748935795773    2.17515549027578

