31
CSD_code = ERULUZ | q = 0 | S = 0 | Stoichiometry = C14H14Cl2Zr | MND = 12
Zr        6.54567392555068    1.49844052195599    3.48535234806388
Cl        7.88109087977035   -0.09560029411264    2.43691297843116
C         5.07013128737044    1.39293785876880    1.57462779079961
C         4.39767878500228    2.20376467566547    2.54042938577544
H         3.44444552260235    1.98090805736034    3.00498076100164
C         5.10394018286028    3.41738040033555    2.66002403341896
H         4.76577871205461    4.28993007180947    3.20490846620897
C         6.21824291258666    3.37215834730537    1.78699222607461
H         6.87746869358268    4.19999021350175    1.55812823721989
C         6.19971874424422    2.13389790412354    1.11844000069617
H         6.86456500424417    1.82986694260402    0.31766208424367
C         4.72129118896060    0.05296954440296    1.12691903859748
H         5.36055306381642   -0.35252770657962    0.34846178847499
C         3.70443908349001   -0.66956410409677    1.59050700458672
H         3.04940808081245   -0.31054028037787    2.36699803151526
H         3.50454851940235   -1.65803675345853    1.21588215377918
Cl        5.21383484151848   -0.10170770206646    4.52895324046078
C         8.02018736808064    1.39340791378885    5.39686677102912
C         8.69309168455770    2.20410469776769    4.43122245792106
H         9.64626339522717    1.98100139332230    3.96656465874096
C         7.98696951552950    3.41774987192674    4.31129973027424
H         8.32524475260214    4.29014732788026    3.76629909209245
C         6.87221925057691    3.37258433105322    5.18380478270128
H         6.21285134868975    4.20044061127666    5.41224544658435
C         6.89043191072685    2.13438948489583    5.85264613997760
H         6.22583990577277    1.83083103164633    6.65376954692192
C         8.36859359571913    0.05332731574964    5.84475862828099
H         7.72965835205379   -0.35135015036577    6.62399364023319
C         9.38449627256526   -0.66990528124882    5.38059287784664
H        10.03941311713385   -0.31125593108052    4.60378317882354
H         9.58413010291130   -1.65844031375873    5.75537347922531

