43
CSD_code = ERUMEK | q = 0 | S = 0 | Stoichiometry = C22H18Cl2Zr | MND = 12
Zr        0.52923547615824   13.94713850555000   12.31816954749584
Cl       -0.27944662857773   15.08597602386864   10.44654617565323
Cl        0.33880017201886   15.87823881602946   13.60502113820773
C        -1.51083910094873   12.62881073116768   11.92292344897385
C        -0.50998453533003   11.71981593743946   12.37643141869747
H        -0.20928826007157   10.81799608042965   11.85860707426397
C        -0.24901416286093   12.00929608309583   13.74992222169717
C         0.53547564926671   11.37127455662968   14.73245648342852
H         1.08153254230595   10.46744397867852   14.49378974942019
C         0.55963381447548   11.88707736077385   16.00398966665831
H         1.14644574260727   11.39965553665147   16.76870437791560
C        -0.18153489984206   13.03246337193285   16.34599444759091
H        -0.12920958986759   13.40115875742094   17.35889402465064
C        -0.98391117387648   13.66473547633477   15.43046771238535
H        -1.57855638664123   14.52362664026445   15.70886742761876
C        -1.04612498977013   13.16082384173455   14.11597174022153
C        -1.80407235600127   13.54310726937209   12.97052369852783
H        -2.55984035223197   14.32075497686438   12.93895677484195
C        -2.15365584805462   12.63323833055145   10.61581908858501
H        -3.04982363373753   13.23852832217120   10.54131818960063
C        -1.71918004812936   11.95911002460485    9.55578438465376
H        -0.81762435964953   11.36789738706047    9.58340836459022
H        -2.24368159055519   11.99248242715973    8.61734611058793
C         2.33571284548083   12.95828325306454   10.97801490820174
C         2.61240213133366   14.35051440255181   10.94612958458114
H         2.66859119850322   14.95953714854724   10.05227868230862
C         2.94503958295738   14.77033820590962   12.25949599713048
C         3.34829302322023   16.01279094514789   12.78871396648818
H         3.45028095079930   16.87001949472289   12.13707603399716
C         3.59955155079048   16.10834744849031   14.13256223026285
H         3.90429702175798   17.05320587245482   14.55580483150068
C         3.46394542501138   14.99719918778745   14.98698701789615
H         3.66692482779538   15.12552117200054   16.03954161303167
C         3.09337345700666   13.76478022923562   14.51312612887460
H         3.02677646688821   12.91079279044478   15.17483174165574
C         2.83364335303584   13.61650584190358   13.13282974831411
C         2.46313075353462   12.49935402738909   12.32767870632682
H         2.49794219388085   11.46487087488030   12.64258026507700
C         1.99154574284738   12.17139313446059    9.80482437672275
H         1.83329888530320   12.74721310531082    8.89839802708610
C         1.88688913688361   10.84429280090459    9.76712900302015
H         2.06428424432570   10.22738972069357   10.63298826886644
H         1.64434172790150   10.32469990830152    8.85649560245217

