66
CSD_code = ERUMUA | q = 0 | S = 0 | Stoichiometry = C28H33N3OW | MND = 8
W         8.29578407354457   16.69651747525863    3.47060025362143
C         9.57295264034653   16.46365609049286    5.38518391228662
C         8.72661852279197   17.59694454173077    5.55428781558985
C         7.36706953819284   17.12942158876178    5.56453086634544
C         7.38727202045759   15.71891668036877    5.40371802028315
C         8.74935925105053   15.30082891141442    5.26926707969095
C        11.07104455653883   16.45834514482521    5.49627158452704
H        11.36751243069208   16.29018587983424    6.53476915923208
H        11.49581628770823   17.40820678254358    5.17331613953649
H        11.51026710642348   15.66775208413879    4.88831756896665
C         9.16695866614852   18.98109970755669    5.93747722678344
H         9.21248214111169   19.07317660608635    7.02595258234319
H         8.47377689339154   19.73489857165210    5.56482555285324
H        10.15501789246785   19.20561612034001    5.53854277360486
C         6.17135289606993   17.95743248962424    5.94869238961221
H         6.05692970792535   17.96884650682462    7.03587077700614
H         5.25487364731356   17.55576251370986    5.51713106491188
H         6.28101759328258   18.98770889092303    5.61179524736345
C         6.20728528882606   14.79934364147778    5.54475914369320
H         6.09441310673939   14.49817931631856    6.58931663568617
H         6.33412617287076   13.89763184600113    4.94674558329782
H         5.28466467401718   15.28760132041884    5.23252012383385
C         9.23222724698680   13.87894129330141    5.30631062338955
H         9.35389549196291   13.54958813853482    6.34183121501738
H        10.19349115910097   13.77470122131819    4.80493017747234
H         8.52382778176110   13.20852259996335    4.82123202649447
N         9.57942213693353   16.64780069896864    2.24177900721831
O        10.47156300416950   16.60553951363104    1.45851329334920
C         7.61342967582438   18.33458129454317    2.54057857786947
N         7.28776224026080   19.35257918636130    2.04449754255827
C         7.06712387777100   20.44923274473940    1.28727674018383
C         7.90457191155734   20.68669569721121    0.18445339068533
C         7.66400323145279   21.81353584216043   -0.58215110485473
H         8.29560211915768   22.01454241026961   -1.43516730276874
C         6.63055592621707   22.68223571487603   -0.26990790699438
H         6.45857493816670   23.55525968222649   -0.88115261006661
C         5.81787362957382   22.43510276451998    0.82399105226006
H         5.01425104300487   23.11624704072494    1.06288186903716
C         6.02019856565912   21.32026283358966    1.61910885358331
C         9.01680078500301   19.73410396049065   -0.11852676591661
H         8.63131061787218   18.72681156829233   -0.27509298493401
H         9.71037842551382   19.67755066939361    0.72055294358629
H         9.56204131859797   20.04578974043599   -1.00465126812684
C         5.16755688788607   21.02947507827330    2.81592571781556
H         4.31961398278742   21.70771084138400    2.86035564136410
H         5.75097119361544   21.14399978087651    3.73025183358113
H         4.80224902396211   20.00340733616743    2.78466291667633
C         7.18164417003593   15.62246443545884    2.20113036274972
N         6.58886486354260   14.88275508059679    1.49637820311518
C         6.03916792555842   14.35094706658363    0.37872666898123
C         6.39214532563618   14.89588344714072   -0.86714578286560
C         5.84594622786004   14.32468635124471   -2.00332169735012
H         6.10440502828710   14.72673205546966   -2.97197064998335
C         4.97353877147562   13.25194743966415   -1.91268324668268
H         4.55708916193018   12.82086571481852   -2.81054850767601
C         4.63239745601339   12.73112883133827   -0.67562992380896
H         3.95091490807655   11.89531454944570   -0.61242497441752
C         5.15932899411420   13.26694210921999    0.48718709530056
C         7.32501841887825   16.06365956359798   -0.92280062233798
H         7.51233592048072   16.35989677816703   -1.95113815817561
H         8.27483690778877   15.82152532469467   -0.44316755196538
H         6.89910029870022   16.90879694954575   -0.37904051465564
C         4.81931234071906   12.72590273544687    1.84180271643613
H         5.72331052930799   12.39039380363130    2.35013662952513
H         4.13019325189138   11.88939372582329    1.76299268485953
H         4.36345817692420   13.50137367558834    2.45734228937676

