74
CSD_code = ERUPOX | q = 0 | S = 0 | Stoichiometry = C21H46N6Ti | MND = 5
Ti        8.89389332156317    5.21310662415992    2.88144150327319
N         8.92557794312813    6.75269563058926    1.57951882839033
N         9.29808645090978    4.72798885045177    0.79579116229459
N         9.35651262232686    6.61938230340362   -0.74295638422853
N         8.33244840063847    6.08553591202767    4.46043659600913
N        10.62030939394807    4.72089299230945    3.42136925480403
N         7.59508278570843    3.87284927561392    2.95444332390968
C         9.21607207693700    5.99909849770836    0.51597021395431
C         8.20394006301316    7.99968658104399    1.44638534439664
H         8.38109902388556    8.46450649170385    0.46394458825673
C         6.69708270274584    7.71394314343113    1.57388318855773
H         6.54341099366071    7.15452798905581    2.50313597574545
H         6.38711702368910    7.07998522131837    0.73634938117557
C         5.87846478128411    9.00124601902917    1.58588761844450
H         5.99855193997529    9.51804278982641    0.62973926020830
H         4.81840563571781    8.76549682273604    1.70600289527949
C         6.34068509410956    9.91757993075374    2.71390890197355
H         6.18224611942640    9.41852225261659    3.67231997190971
H         5.75369654852559   10.83903332019457    2.71147099949958
C         7.82224506722737   10.24121063336280    2.55265122930741
H         7.97419206175134   10.77732950206804    1.61177877673191
H         8.15235118655922   10.89384570800208    3.36416357293145
C         8.65046885796152    8.96054376787737    2.55180045425557
H         8.53853233717170    8.43593263635341    3.50353492802799
H         9.70997838702589    9.19828720172873    2.41887025935233
C         9.94463718429178    3.70614949621693    0.00847240173011
H         9.47318749465156    3.58314884083325   -0.98184800924264
C        11.43957879060301    4.00135066706148   -0.19004194002425
H        11.56835591057063    4.92821091769092   -0.75312134265540
H        11.88356950482433    4.14610058108092    0.79694751601565
C        12.14252285003115    2.85485109741925   -0.90924125338544
H        11.71029041462918    2.72731283005731   -1.90577243112066
H        13.20228846012521    3.09168184061340   -1.03450411781287
C        11.98629339852008    1.55841560308389   -0.12202931231340
H        12.46149847082071    1.67003964688567    0.85502586115226
H        12.48350326893034    0.73935259637756   -0.64737660796286
C        10.50754528382251    1.23846276911525    0.06994381788934
H        10.04757644397207    1.06783857910416   -0.90758875194956
H        10.39805452579881    0.32116550515106    0.65279245343672
C         9.79321746949286    2.38694640373708    0.77555295609835
H        10.20070693543983    2.54159463478406    1.77924544314770
H         8.73064115528637    2.16096149862505    0.87909828717191
C        10.39048561582829    7.61488945050949   -0.90234384505217
H        10.68672060562009    7.99445179346205    0.07318180774221
H        10.02306433788607    8.44419973099805   -1.51591224032630
H        11.27950153080047    7.19587151261133   -1.39690416877872
C         8.99827575341987    5.94092395526802   -1.96083933121012
H         9.82731759896892    5.37472485641235   -2.40944772205007
H         8.67394769232872    6.69296715524852   -2.68718895389259
H         8.16471843738568    5.26925962112170   -1.76691663787810
C         6.56159959226008    3.77844897494563    1.95820107644744
H         6.47156253853724    2.75112589201398    1.55638443629976
H         6.78290640940208    4.45454774938372    1.12580677811405
H         5.56523102526954    4.04054551029280    2.37105361461221
C         7.36341106478459    2.94433636876390    4.03087410927866
H         6.31714748327079    2.98958711807273    4.38834520017897
H         8.02175205171508    3.18282120864986    4.87139442876790
H         7.54884024874837    1.89917867981071    3.71796373289022
C        11.02096959449534    3.67853860469437    4.32787755623624
H        11.91506966318230    3.14456470096969    3.95361657663790
H        10.21255054732940    2.95286515275018    4.44290184153832
H        11.28453476949204    4.07788873976103    5.32792052028018
C        11.70413640710094    5.63700845567969    3.18204569229795
H        12.09069111277921    6.08354566397645    4.12153360076145
H        11.37249678049205    6.44550037672336    2.52113810114228
H        12.56899473386536    5.12891194057290    2.71160467495466
C         6.98501087715221    6.08885966518319    4.97758358157517
H         6.91731448424949    5.53152411985586    5.93121939447710
H         6.29460354675259    5.63345095253686    4.26560988444690
H         6.63744159338789    7.11872290189207    5.19217710328823
C         9.21074427740556    6.66356602700149    5.44893118282571
H         8.82699882834443    7.63866712344967    5.80632625763884
H        10.20598084518118    6.82555054203573    5.03395012685842
H         9.29986157184146    6.01570185009133    6.34281480526023

