119
CSD_code = ERUQOY | q = 0 | S = 0 | Stoichiometry = C45H66N6OZr | MND = 7
Zr        3.24935168305360    3.08230228962674    5.98471758143295
O         3.70765390144055    4.43005966968256    4.66476115028958
N         5.13543401659966    2.47123866014029    6.56203994941730
N         3.32063536985420    1.33817786108093    4.90787107167911
N         7.00581899642741    1.44669403891232    5.43716185718578
N         2.09296526148376    2.61854522181227    7.76357895770355
N         1.59377632647621    4.45271079733763    6.62765592538704
N         0.23160926455579    3.98098476986844    8.51635446593063
C         5.60797097162258    1.63062391081085    5.55005774857425
C         4.69245977652337    1.08197504916206    4.70706762131780
H         4.96547875145654    0.50540939902926    3.83265821440568
C         5.60652350655441    2.47512647119191    7.85558217763913
C         5.43309171107905    3.68778373036941    8.57277210279539
C         5.84133535927544    3.80134736105490    9.88734718424791
H         5.70018395548750    4.73848111428629   10.40920909302127
C         6.43759550136185    2.73354623111814   10.53728512276548
H         6.75920284555811    2.82503978216668   11.56349230290188
C         6.60786414368012    1.54543649727201    9.85083804737337
H         7.05907060999056    0.70337745743991   10.35790488734528
C         6.20612229766230    1.38515319551519    8.53302044095931
C         6.39710922869695    0.03733017726053    7.89942141713209
H         6.43014601869472   -0.73226302707732    8.66880108606211
H         7.32958586501775    0.00601323407512    7.33778398994304
H         5.58905479722500   -0.18754544313611    7.20918357326013
C         4.80670368748600    4.85839907797425    7.86072935379585
H         4.93890256381341    5.76825893786649    8.44793541707710
H         3.72981087711000    4.67693178487230    7.71417070849433
H         5.27651085137490    4.99639909506045    6.87716471580374
C         7.82825180425091    2.62429055891462    5.64115373439877
H         7.46126915155159    3.18964787266066    6.49374038885899
H         7.83859419586060    3.27677203747831    4.75899136109484
H         8.84884857482622    2.30223671203261    5.85574796278846
C         7.45998842334161    0.65363671408059    4.31905433568079
H         7.25302421853016    1.12837167262255    3.34991783227940
H         6.98094253577650   -0.32377855768867    4.34765628155427
H         8.53693845254997    0.51123604274008    4.41486627478211
C         2.36760576745751    0.48791963299285    4.40277016392563
C         2.50691533921938   -0.92070666568830    4.30254812859453
C         1.46849933892956   -1.67470040639476    3.78009632242116
H         1.58996695683141   -2.74781657404447    3.71886153713523
C         0.28320337353716   -1.10251633051562    3.35497369894367
H        -0.50791781634896   -1.71493646766314    2.95076073393419
C         0.12657507496960    0.26828504534306    3.46940774669409
H        -0.79734886503408    0.73069031058387    3.14867567558061
C         1.13687877725902    1.06177572614141    3.97908470431314
C         0.93017489588422    2.55066243178507    4.09217912854356
H         0.10781775867296    2.85817159014569    3.44462098331682
H         1.83884591567640    3.10020836989137    3.79809473935329
H         0.67476968989909    2.82878859553146    5.12560305620009
C         3.71693025027602   -1.66230942952737    4.80746252008251
H         4.44271788251821   -1.82287930194409    4.00940644582936
H         3.41757299246351   -2.64183538935630    5.17896721146489
H         4.20923307294817   -1.11981094234288    5.61060710169430
C        -1.11789097866416    4.14141366089316    8.03092273581022
H        -1.11928562768768    4.20662470520888    6.94600580947561
H        -1.56847222933786    5.04895534638399    8.44642227333683
H        -1.74281738972333    3.28765769676593    8.32913701731753
C         0.32764768214790    3.70944615071678    9.92746319463424
H         1.37479175579575    3.62133896670307   10.20851485631868
H        -0.21174937980934    2.79937325004646   10.22400405314408
H        -0.11067200514581    4.55215363540152   10.47211091134903
C         1.66807395504379    1.35844367814300    8.35438083742561
H         1.36275541833819    1.46828412455334    9.40599776549529
C         0.49833209126385    0.75570251300282    7.55734442685307
H        -0.37109294100875    1.41470480920713    7.61984556228730
H         0.79885215520774    0.68445599775220    6.50602366366826
C         0.13276858336423   -0.63401266656057    8.06843756880697
H        -0.19926601056733   -0.56952082914423    9.10842889198223
H        -0.69269965098167   -1.03424951058924    7.47590733227273
C         1.33891971240712   -1.56104462670236    7.97403778474049
H         1.07590490466182   -2.55469682928114    8.34279674892395
H         1.63365819620632   -1.65254232903802    6.92734096916707
C         2.49951738544605   -0.99343810720274    8.78481162496307
H         3.36946704626046   -1.64735205015178    8.70065328295011
H         2.21725979024305   -0.95010989656226    9.84018768794008
C         2.86541230776709    0.40605943575407    8.29937548804951
H         3.67257770999886    0.81727900971084    8.91071648677320
H         3.20509881426275    0.36898106272656    7.25633888226908
C         1.08790561790012    5.80190557806280    6.44671998905845
H         0.34342067968205    6.06303244209998    7.21257415831676
C         0.46250859892785    5.91003740656160    5.04838805545947
H        -0.38909093760037    5.22885608827024    4.96896143844565
H         1.22222923496737    5.59472930323194    4.32625088191136
C         0.01168679084306    7.33344400540360    4.73836020018351
H        -0.42291509969218    7.37062559042596    3.73701392725124
H        -0.76206091808526    7.63601699470109    5.44923141027055
C         1.19078592618783    8.29455885459416    4.83310480478062
H         0.86275718412994    9.31434735580014    4.62024411476371
H         1.94253712964340    8.01813116227911    4.09112869663965
C         1.80530107994350    8.22162365577080    6.22591614393188
H         1.06613173468622    8.54562155978976    6.96377861527900
H         2.66033460519322    8.89796289940134    6.29301880231554
C         2.25429037683456    6.79842792094889    6.54678252164431
H         2.66393589143309    6.77088937318890    7.55948164802517
H         3.02851730044396    6.47914081814163    5.84089485721782
C         4.76804535270279    4.31153640785748    3.87507107259127
C         5.88163605778779    5.15036026653808    4.02514301701116
H         5.87414778052070    5.89696743321059    4.80989470571864
C         6.96737376174834    5.04997677684541    3.17920855105987
H         7.80016813538952    5.72003178469387    3.33850873497920
C         7.00901871189887    4.12342373917955    2.13942756658380
C         5.89362089366937    3.30988216470326    1.97425631481360
H         5.85839810150006    2.58819409553676    1.17333688944630
C         4.79668063953917    3.39760312202510    2.81120187988723
H         3.93079157630022    2.76794902497605    2.63521165177094
C         8.23810472594808    4.05026772767473    1.24542878887036
C         9.47012030152967    3.72102614968882    2.10121706436091
H         9.63484247926845    4.47562686422158    2.86549384154152
H        10.35918165108204    3.67091494332938    1.47556647965898
H         9.34038565619535    2.75935908383300    2.59315196234532
C         8.11524749994000    2.97627717430190    0.16095391483676
H         9.02007947330266    2.96617234972300   -0.44390906380322
H         7.27358627067109    3.17920777529044   -0.49691774676542
H         7.99432354397175    1.98848385645008    0.59991204541886
C         8.43788103638707    5.40644376374144    0.55388092121874
H         9.30034451107769    5.36836161359455   -0.10871718267556
H         8.60046625675133    6.19873253511144    1.27918083914286
H         7.55922353791335    5.65954525816145   -0.03558961832686
C         1.27689965302733    3.66785729021042    7.64381701549950

