118
CSD_code = ERUQIS | q = 0 | S = 0 | Stoichiometry = C44H68N4OZr | MND = 6
Zr        4.93017381658511    3.48149681150378    8.59305030112190
O         4.91925395338942    4.90284522600634    7.31848275746254
N         4.27600241446091    1.61030463878710    8.11282415850512
N         3.83914686790823    3.19062750610541   10.32322038850754
N         6.90001904057438    3.22714936051525    9.16383481899659
N         4.17016171379385    1.35065544544868   11.84276427537367
C         5.00575793245795    2.13139814854140   12.73330234357600
H         6.07761964755375    1.91169517986548   12.60159413603823
H         4.73236939255782    1.90195969473141   13.76476378210323
H         4.83688038319833    3.19264027905702   12.56156008731246
C         4.37019573931984   -0.06804877065487   12.01614544664049
H         3.59874844551412   -0.61222096121420   11.47493048427804
H         4.27599298667333   -0.30127278759058   13.07728629800426
H         5.35930006588631   -0.41075291114165   11.67502628623948
C         2.96273205014878    3.90119711443207   11.12449921570903
C         1.80424679305139    3.35294622333302   11.73611088230361
C         1.05720600386549    4.13277044586697   12.60398076554051
H         0.19182886824327    3.70060493681463   13.08384267091790
C         1.36750314120554    5.45316686726282   12.86189570224017
H         0.77587891251282    6.03488621393983   13.55236070467696
C         2.42521133442325    6.02613374993571   12.18401244693100
H         2.64123953698217    7.07303962333874   12.33924646239834
C         3.21349339701670    5.28642932719449   11.31937347550567
C         4.33541926081950    6.00504460149997   10.59086593290153
H         4.85562785454651    5.27853100639412    9.92137323961704
C         5.36082258255396    6.55961794587995   11.58764577242657
H         4.89143811902221    7.27240238450328   12.26158152452415
H         6.16953725892930    7.06944170518590   11.06684855818772
H         5.78346783902822    5.75576183867399   12.18762862487781
C         3.76547850386360    7.13994673875496    9.72969969814567
H         3.28174571874038    7.88663363524460   10.35609458791803
H         3.02886192647533    6.76282625711883    9.02271234349163
H         4.55170526180197    7.63423644588180    9.16486813685531
C         1.26193148980797    1.97735824424250   11.41056421013684
H         1.95044949601103    1.47136346887226   10.73399773444291
C         1.10578382748868    1.10989869997646   12.66110535142335
H         2.04039660791558    1.07901489339058   13.21160809182629
H         0.83225344239142    0.09436809936596   12.38100622912960
H         0.33019122673458    1.50018361325640   13.31564483630652
C        -0.08481148266043    2.10863134197506   10.69038915779207
H        -0.82386223654654    2.58937097673153   11.32681847496451
H        -0.45950713673638    1.12326240218999   10.41941018789297
H         0.02036912034726    2.70290644067366    9.78528796262974
C         4.09393028098251    0.75481304498727    7.03243222368103
C         2.98042171819521   -0.11622942521215    6.96707153016006
C         2.86683692592397   -1.00925287520054    5.91474932311838
H         2.02674568860580   -1.68737900629355    5.88130304385800
C         3.80051770307372   -1.04333793064327    4.89712136014106
H         3.70224650506813   -1.75092635783748    4.08758005395176
C         4.85349102273815   -0.14862189891871    4.92003328455812
H         5.57366240903978   -0.17118208730539    4.11537822240437
C         5.01876391772100    0.75192506738692    5.96020934596910
C         1.85970679955734   -0.03228446246783    7.98140714294140
H         2.07081773429318    0.80138802704730    8.65797149619670
C         0.52647737527451    0.26340697244758    7.28657447060630
H         0.60554152055217    1.15501576884178    6.66761434409736
H        -0.25329501990406    0.42711499855093    8.02725545521326
H         0.22161083496887   -0.56343752751302    6.65015513650191
C         1.74516023937879   -1.31417668729410    8.80856910827990
H         1.48914011124096   -2.16000424416557    8.17440302273210
H         0.97203990838164   -1.20672222404873    9.56701590964663
H         2.68666183273593   -1.53674870397340    9.30526838615133
C         7.50998270142876    0.80775155718900    6.05797925832100
H         7.42518730450875    0.07930147872936    6.86138297894430
H         8.37252580869641    1.44141252283774    6.25247695672914
H         7.68191488848663    0.26467263869461    5.13109737114635
C         6.23585402651540    1.65879490120330    5.95137722052806
H         6.19065330408514    2.34305428194204    6.82899152913322
C         6.31125261901087    2.51408730575549    4.68117128852210
H         6.21065225452884    1.89764203997255    3.79099704725097
H         7.27488937587198    3.01626741209250    4.63674782916469
H         5.52756057346349    3.26746811052311    4.66514588572442
C         4.42443606722468    5.89506217134142    6.57864496873013
C         3.05765499408528    5.89734155748174    6.18714547582461
C         2.55382166219709    7.01221393020335    5.53549958404873
H         1.51453782618320    7.05662980609459    5.25728403886110
C         3.35738653513121    8.08933126293920    5.22156898228900
H         2.93882628695335    8.95296211027416    4.72731618811637
C         4.70655372060412    8.03989017786063    5.50910076790026
H         5.31828602293951    8.87311427825824    5.20782300361215
C         5.27063343090405    6.95901255151232    6.16773554739046
C         6.77351556536330    6.93481245530967    6.45437960446065
C         7.53487577910456    8.03804781626538    5.70741780005223
H         7.36868962320981    7.97077193186601    4.63491983761841
H         8.60126681375454    7.92278160744187    5.89266210612097
H         7.24835055601226    9.02865980386835    6.05203437085164
C         6.99822911130038    7.13773200705739    7.95638729427841
H         6.63886542714257    8.11827851105751    8.26592846038503
H         8.05901296170734    7.06939487387408    8.19258065499111
H         6.46125745678645    6.36403726740637    8.50336958812169
C         7.38965447039650    5.59427402521921    6.02818269942324
H         7.01925697977711    4.77385454462112    6.64737301548138
H         8.47261063449790    5.63722542337475    6.13335866189372
H         7.15168587954310    5.39743668509809    4.98519122075332
C         2.17131238093873    4.66710786293826    6.40270937420353
C         0.77642092813123    4.81293427942404    5.77817803248058
H         0.22120205887987    3.88956514321382    5.93259231069662
H         0.84003748107986    4.99018574138245    4.70768588784452
H         0.21325176268415    5.61966244840270    6.24097706139816
C         2.85136824736916    3.46658438413212    5.72690344283267
H         3.82679971709701    3.27279175497426    6.18351510471146
H         2.98660103449466    3.66893238982398    4.66492583455855
H         2.24071310820549    2.56988357161623    5.82489076213620
C         1.96943937966263    4.37026490820456    7.89624352531829
H         1.44236441130723    3.42099975009861    8.01524151885375
H         1.37064371583758    5.15286315345300    8.36455908490182
H         2.93720054009816    4.29892075408818    8.41473530885805
C         4.30506432132005    1.05177631219913    9.40251727622010
H         4.53660007301506   -0.00739509588549    9.47526527253370
C         4.09548305308401    1.82632093619832   10.50553642756701
C         7.34299034985297    1.87474273462473    9.44476153496452
H         8.43724883521278    1.79185996761890    9.31003999863594
H         6.86324168375534    1.15300279984613    8.78102847818040
H         7.13051878579861    1.57530618946123   10.49178226669045
C         7.52303495339938    4.09744436888765   10.14074116074199
H         7.20755794044472    3.86045411343863   11.17972423721360
H         7.30310225800867    5.14630340181344    9.93673859367523
H         8.62168369318893    3.98045853243984   10.11106486204620

