55
CSD_code = ERURAL | q = 0 | S = 0 | Stoichiometry = C20H32N2Zn | MND = 4
C         3.15120661843100    4.21106022871482    9.07782787013201
H         2.26921802940192    4.84216155369688    8.97070373841759
H         2.90410152569391    3.22573851524599    8.68477308987342
H         3.93460579337920    4.63565728286140    8.44046007826456
C         3.60663957407639    4.14662850649118   10.53965730109072
H         4.53482530390936    3.55558273748442   10.54925356291299
C         3.99562934470280    5.56222409798187   10.98177673143566
H         4.74609565070171    5.97347461941774   10.29114958294837
H         3.12006765606638    6.21453023038936   10.92679077589963
C         4.56380630248799    5.61414743382451   12.39377147181112
H         3.84739032258923    5.20334850515436   13.10503009536638
H         4.78831450995610    6.63982353790372   12.68267381926347
H         5.48489292657042    5.03620576717830   12.45762946785382
C         1.85528806802805    0.85742818949032    9.62688776630320
C         1.33541357674641    0.34266743303356    8.44169549504707
H         1.92720577828840   -0.33444049218877    7.84456186397529
C         0.06348602474145    0.70880593096579    8.04047872645012
H        -0.35596822460262    0.32360137383174    7.12262963033384
C        -0.66131324691652    1.57500788810128    8.84480458067991
H        -1.65933755959671    1.88372970571449    8.57746423897481
C        -0.06835282007730    2.03935619130624   10.00507407364688
H        -0.59006387982059    2.71287658689438   10.66891907351593
C         3.22477358746584    0.49071989633642   10.09146328465915
H         3.90160071872904    1.32098973142209    9.89992627643623
H         3.59135583702330   -0.39119635329972    9.57275549657240
H         3.22501815170296    0.31956950992466   11.16413885780904
N         1.15518961041117    1.69793627697195   10.38723988112837
Zn        2.13815495285434    3.34626199378503   11.82834499832054
C         1.12510806730261    4.21109495449665   14.57884199919548
H         2.00709033895368    4.84220682448602   14.68596048563214
H         1.37222644971872    3.22577972076387   14.97190319532003
H         0.34170658987171    4.63568532044549   15.21621111872742
C         0.66966410597416    4.14663735602922   13.11701626904267
H        -0.25851647056903    3.55558287750528   13.10742864309500
C         0.28067308596898    5.56223205976881   12.67489279388623
H        -0.46979681133043    5.97348382236535   13.36551570177281
H         1.15623166899071    6.21454431744920   12.72987205182764
C        -0.28750342594101    5.61413530836529   11.26289711042303
H         0.42891443588902    5.20333640267805   10.55163984085005
H        -0.51201671484000    6.63980828225098   10.97398863163744
H        -1.20858804087689    5.03618952871611   11.19904204240713
C         2.42102738780413    0.85743322074644   14.02980509587517
C         2.94091729008751    0.34265804666060   15.21498477831614
H         2.34913189662373   -0.33445444357047   15.81211776021448
C         4.21285188217822    0.70879070885711   15.61618984692481
H         4.63232485028825    0.32356342369021   16.53401733327317
C         4.93764234742744    1.57499661000183   14.81186071552877
H         5.93567690597915    1.88370301007626   15.07918330283640
C         4.34466589880157    2.03935981751566   13.65160465733641
H         4.86637297175666    2.71287845573122   12.98775368637854
C         1.05152598886183    0.49074721564493   13.56525883934146
H         0.37468145258399    1.32096868120108   13.75694857161847
H         0.68499941644609   -0.39124860630107   14.08387123234058
H         1.05122676537918    0.31974365548148   12.49256024163727
N         3.12111753354323    1.69794655065665   13.26945222518157

