55
CSD_code = ERURUG | q = 1 | S = 0 | Stoichiometry = C19H26ClN4O3PdS(1+) | MND = 4
Pd        0.23460431204087   14.07776788862491    6.27919828177793
Cl        0.17334883942922   15.88697113779721    7.59802522438236
S        -1.95066836652483   14.08749535472921    5.59827438235574
O         2.22631967359357   14.03166983283002    6.68608739456905
O         0.36518612491952   12.93011123409152    8.55489810637530
O        -0.47332602829438   14.03637390682183   10.30043123222065
H        -1.33176466429920   13.90957614899743    9.86087539458961
N         0.39837511205687   12.42018247904848    5.19371577510810
N        -0.63327802839261   12.16529350884051    4.33691752416397
H        -0.57009753369513   11.33368296729622    3.75124776470683
N        -2.83704050982200   12.51683173461232    3.68746778917709
N         2.70156559101602   14.66870122406059    9.14349610293458
H         2.16992490030398   14.70921987466656    8.21278788430397
C         2.78017760927735   12.87656753699585    6.89869693106934
C         3.75771368110164   12.79753145370872    7.92584855634472
C         4.46937137988610   11.63896035671614    8.13170732465086
H         5.21164957970091   11.60002627892699    8.91640533361636
C         4.26611242470849   10.50566106025363    7.33511646235203
C         3.28234638719424   10.55181512827872    6.37319661052233
H         3.08365059039576    9.67203764598301    5.77836226260021
C         2.49266194793918   11.69501114217258    6.15997211350145
C         1.39278379103203   11.59800482940258    5.25158733165877
H         1.37278367212581   10.71362122855364    4.61016925812817
C        -1.80928996322164   12.83942067359096    4.46147165377453
C         5.09535999316474    9.28035144854920    7.55822072407991
H         5.00627691192399    8.94086808100026    8.58872553096713
H         6.14569927176451    9.49788066187919    7.37065721444990
H         4.78692854373126    8.47457496244839    6.89883909005328
C         3.98572685356785   14.04249769807540    8.74644728455218
H         4.52171597370127   14.77820992009381    8.13850008185421
H         4.57765156768043   13.82158999369909    9.63787585462529
C         2.84865378573911   16.05439312230127    9.66286795932115
H         3.86431000461542   16.18354127492234   10.04196247692728
H         2.65378110212616   16.76601367023527    8.86282081530165
C         1.83346597292653   16.15983816823896   10.79075995195216
H         2.09470399308708   16.93348271068189   11.50681453644696
H         0.84698020504538   16.36728652360039   10.37954952475745
C         1.87649041742440   14.75820083074524   11.38873677363739
H         1.01708148604685   14.53985992518098   12.01468644168107
H         2.78497542451485   14.61679570252873   11.97506664309159
C         1.91416014808255   13.88177969403904   10.13997337889110
H         2.40516675328344   12.91565780545571   10.29683190732081
C         0.51676787550709   13.57575718319185    9.56868780074257
C        -4.12023595006216   13.19448837515441    3.79603307080647
H        -4.02232937263195   14.22227115798274    3.43146461381702
H        -4.43871332563334   13.23259245902915    4.83942231469065
C        -5.04559011043113   12.36481994700991    2.91325787942582
H        -5.46729396085775   11.53596365405193    3.48177375190761
H        -5.85976546312469   12.95640132856524    2.50474696568815
C        -4.10162857321203   11.83978324029386    1.83425256287894
H        -3.90591622112566   12.61760815725584    1.09644710537507
H        -4.49016070589720   10.96339171069269    1.32244682175683
C        -2.82691105389592   11.53066884790827    2.61821032501368
H        -2.86458548462600   10.51899324179897    3.04001612793083
H        -1.93267658485738   11.63110387637612    1.99804777518896

