51
CSD_code = ERURIT | q = 0 | S = 0 | Stoichiometry = C14H34N2Zn | MND = 4
C        -2.28300732557898    2.92099906276830    5.30302961599286
H        -1.38363924890189    2.44182236686355    5.68749108419205
H        -2.90993249012326    3.18729973305801    6.16079278312541
H        -1.98577140372012    3.84642463196419    4.81448520307439
C        -3.03615357462579    1.99449224344239    4.34132025169984
H        -3.32100955080162    1.11356645280536    4.93390046747671
C        -4.35301100053546    2.65767012619156    3.92276299126639
H        -5.03563913115344    1.89597624043277    3.53599889432362
H        -4.83628603653249    3.10369324528509    4.80320237446427
C        -4.18993237355994    3.74075330079150    2.86344419948263
H        -5.15409167162943    4.17832742251582    2.60719088605541
H        -3.74771677658948    3.31805682500557    1.96155153392110
H        -3.54206864578275    4.53577403373581    3.22294891062681
C        -1.54004747517069   -1.69055939260555    3.41577983568979
H        -2.35420042875757   -1.62759257713266    4.13887566461272
H        -1.02031624368871   -2.65069552948612    3.57735479257203
C        -0.42856845537770   -0.40853531929138    5.09175802518139
H        -1.37524359127900   -0.19109081927706    5.57980984908855
H         0.24591947649164    0.42779967417211    5.26293601815006
H         0.00854855669951   -1.31017601652759    5.54490231288340
C         0.65067900413595   -0.79272101013355    3.02013705367278
H         0.53495360334081   -0.83990115658332    1.94137541352196
H         1.12148194276725   -1.72377599372023    3.37001979558365
H         1.31066818935045    0.03986186031971    3.25122274557704
N        -0.63754779530632   -0.56988687435950    3.65940679021703
Zn       -1.83252834992976    1.39467187370091    2.71068928414190
C        -1.38203398805083    2.92099313830233    0.11834610710061
H        -2.28140021035024    2.44181142128988   -0.26611517070525
H        -0.75510710899437    3.18729290927867   -0.73941665098250
H        -1.67927485345589    3.84641975584639    0.60688361966857
C        -0.62888597378194    1.99450891905221    1.08007446131264
H        -0.34401945289914    1.11358646473369    0.48749638245274
C         0.68797870525001    2.65768356149211    1.49861143147260
H         1.37060206944303    1.89599422816321    1.88539404959633
H         1.17125590459156    3.10369508647331    0.61816622250444
C         0.52487659306018    3.74077766710668    2.55791477969676
H         1.48903757323575    4.17833908622018    2.81417906979307
H         0.08263925641442    3.31809918239255    3.45980607636472
H        -0.12296650487936    4.53580593597888    2.19838806257134
C        -2.12497673636881   -1.69056282437161    2.00560143901742
H        -1.31082519962248   -1.62759411505366    1.28250519851997
H        -2.64470346315929   -2.65070127610707    1.84402706553586
C        -3.23645995465849   -0.40854350741730    0.32962158778181
H        -2.28978471050972   -0.19110305621790   -0.15843321738669
H        -3.91094946930951    0.42779080092526    0.15844227900512
H        -3.67357809117996   -1.31018243980259   -0.12352054531247
C        -4.31570473908302   -0.79272926178996    2.40124354400467
H        -4.19997723868861   -0.83991157285204    3.48000517692595
H        -4.78650650946350   -1.72378384024839    2.05136154921736
H        -4.97569578249999    0.03985281257839    2.17015808272043
N        -3.02747931878806   -0.56989347990971    1.76197262253697

