61
CSD_code = ERUSEQ | q = 0 | S = 0 | Stoichiometry = C22H36N2Zn | MND = 4
C        10.30374798718045    1.91634256242145   12.67726277490518
H        10.53874166310268    1.57854589765571   11.66174171418205
H        11.00440309479669    1.43197691020360   13.35648493442924
H        10.48692432701278    2.99032950588897   12.71404034218512
C         8.85419140172613    1.58660994743442   13.04678978525207
H         8.75910461170169    0.49446108461053   12.95980492262658
C         7.92816180599569    2.18947647642267   11.98476400596534
H         8.04002143963961    3.27732842102357   11.97582262806502
H         8.21692259485182    1.82796839442516   10.98694736794956
C         6.46280074126727    1.84523759393371   12.21688007333687
H         6.31104301184272    0.76819720037156   12.15973483734283
H         5.82920120582255    2.31659891164246   11.46701643659499
H         6.14713914603713    2.18752200575977   13.20284665362304
C         5.92850777154714    3.31204119975280   16.50733157409207
H         5.44555199220319    4.12113963402556   17.06648765622718
H         5.95328182749949    2.43423952965492   17.15205768704231
H         5.29360698183748    3.08312582449614   15.65130560622029
C         7.33804864438446    3.71379217627184   16.06190342902364
H         7.89292503717262    3.94760608331445   16.98217184959354
C         7.24675226003073    5.02040269546126   15.26603959835623
H         6.63625437102600    4.86326964070282   14.37239616548546
H         6.74383908590614    5.79135183047834   15.86802332478330
C         8.61088790950054    5.55134933140964   14.84533310637406
H         9.21496211471746    5.78583460358369   15.72079548829944
H         8.50864427533077    6.45868607284162   14.25183149737242
H         9.13833889453317    4.80515918905075   14.25045218008173
C         6.55541039274256   -0.41591215505713   15.45968313845600
H         6.51854276119792   -0.33519087475914   14.38261073161806
C         5.65377478458717   -1.22268372172771   16.14534510733645
C         5.77046387487206   -1.27524842257232   17.52810123039669
H         5.08970834671382   -1.88544399312904   18.10631480372832
C         6.76116309841223   -0.54138244410314   18.17075041157733
C         7.60034218906126    0.22963454072637   17.37638911978009
H         8.38706941391425    0.82807664950620   17.81386126520072
C         4.58699428306963   -1.98019104206304   15.42055378210383
H         4.35289572843020   -2.90954346362101   15.93503910554686
H         4.89600538542462   -2.20279424944438   14.40241190231617
H         3.67712350182170   -1.38151338864959   15.37359058946095
C         6.92363862883668   -0.59001169149406   19.65724928702149
H         5.95357800738083   -0.59644102497456   20.14979036319977
H         7.49576659709656    0.26407494911681   20.00989059251679
H         7.45205843864968   -1.49916358797436   19.94552742816057
C        11.12334989234527    2.90663730738255   16.35081696122530
H        10.61202601164098    3.85498626304387   16.43558181481295
C        12.50504793134824    2.82725111698724   16.49316229878943
C        13.08552289762028    1.57206908200991   16.37581373703493
H        14.15663896273732    1.45793608677783   16.47458906389938
C        12.28964776685145    0.45786116843999   16.12982324929053
C        10.92262187539986    0.66560760020361   16.00572950713840
H        10.24922373555781   -0.15711196144514   15.81027205208970
C        12.89065310212128   -0.90547137767787   15.99441566586752
H        13.57572756707787   -0.93129637919585   15.14790933014524
H        12.11809362753772   -1.65374094438234   15.83908687190665
H        13.45668989123601   -1.16303495618359   16.88861653809940
C        13.32628802911131    4.05345585423944   16.73637513021758
H        14.24316812067114    3.80882557830611   17.26764391641909
H        12.76435284727691    4.78592868891146   17.31064769729323
H        13.59709905201775    4.50976089327977   15.78405885644788
N         7.50166645544484    0.29193329995930   16.05638790259280
N        10.35247573537283    1.85783414025954   16.11198653954127
Zn        8.32676686976846    2.20810973644992   14.98290836934025

