59
CSD_code = ERUYAR | q = 0 | S = 0 | Stoichiometry = C19H13F18O8Y | MND = 8
Y         2.87059850103954    2.69720225962937    5.46152422302441
O         4.84562373939476    2.47480945156312    4.47451506442329
O         2.60564426372040    3.54848024272238    3.42081281732804
C         5.08036508387840    2.18076997921976    3.28334841740954
C         4.30307203141218    2.47190290729310    2.16194950020857
H         4.61213636344845    2.14706627363489    1.18326853381188
C         3.08022468525066    3.11681372454378    2.34682742926592
C         6.39229401879959    1.40418796601404    3.02527567335474
C         2.15560913589671    3.27999019163715    1.12106543198678
F         7.21810200584081    2.07860100333537    2.21185094250902
F         6.17999475413216    0.21268400382999    2.46629968913416
F         7.05041451537009    1.20304192710441    4.17190325527223
F         1.18403015325353    2.35219156475850    1.17094806368252
F         2.77151092687486    3.14556283390514   -0.05328495461405
F         1.55801045029274    4.47370605924597    1.12473421821601
O         0.71511100162188    2.56053507326692    5.04975328600403
O         2.69527138991357    0.85896994266740    4.23079983075344
C        -0.00739892767853    1.75594573168647    4.41801875402901
C         0.39290326403061    0.63812718859060    3.68902142373701
H        -0.33408693277810    0.04676479973148    3.16014473212261
C         1.74466568506664    0.29485326875215    3.64546494208115
C         2.16573409584794   -0.88414942837001    2.74078099856638
C        -1.52168508827315    2.03768656731714    4.53050805268271
F         3.00915827861407   -1.70162677216725    3.37046791188846
F         1.15100054034155   -1.62054769509073    2.28870643872420
F         2.81323604345888   -0.40129325622189    1.66486561207699
F        -2.25488862373955    1.48249996810092    3.56626649529969
F        -1.97521985946314    1.55354466219243    5.70030074161198
F        -1.76975679762607    3.34690535082221    4.52618483097041
O         1.83269307458900    3.68489799472589    7.19124951990993
O         2.39889038688440    1.07256065221838    6.86386647189450
C         0.84647618917433    3.23903144017377    7.81206330335454
C         0.51373441425226    1.90173665513488    8.03949908378028
H        -0.38542839971626    1.64478845658191    8.57292022664175
C         1.32573121465442    0.91158797516158    7.48866513014320
C        -0.11927398052874    4.29534549117196    8.39764998984734
C         0.85854285445680   -0.55597738056668    7.58735670191309
F        -0.11872805209270    4.27468641670424    9.73901301312238
F         0.25119202601717    5.52510736572293    8.02564038057093
F        -1.37995591124483    4.11505659630115    8.00474333613956
F        -0.13848753768943   -0.76124673175365    8.44824417367414
F         0.43117896658212   -0.96118358260548    6.37846248561791
F         1.86292912707681   -1.36070271657505    7.94028163431575
C         5.39719803895523    1.72251387195849    7.43658414232049
H         4.73438851270573    0.86027657829816    7.50510630304798
H         5.91261505082971    1.86891596223103    8.39263751222258
H         6.13418104707805    1.55703222680644    6.64481056930669
O         4.57847769992600    2.85414972226885    7.14656814576955
C         5.35820671207970    4.03877492399592    7.02065125542323
H         5.93219247732700    4.20761771004517    7.94288312647182
H         6.04943249750337    3.93883910323258    6.17181007283403
C         4.40897131168751    5.20675224930276    6.78379507166820
H         3.72397320874737    5.30846203459811    7.63692880628486
H         4.98346659792414    6.13585991667132    6.66030987894573
O         3.66236836980776    4.94040491368393    5.60018999750339
C         2.75163227666270    6.00202815349423    5.31489702643201
H         2.03766573884798    6.13708171550539    6.13334125293833
H         2.21857201560296    5.72860848035068    4.40433306541708
H         3.30388937390047    6.93456801586791    5.15267596701067

