87
CSD_code = ESABUX | q = 0 | S = 0 | Stoichiometry = C35H41F6N3NiO | MND = 4
Ni        6.33214322768273    3.12866496874513    3.91120524781417
F         3.04720956714033    2.48701711240703    7.74096078239018
F         2.77462368993175    6.23476692771160    3.38443296590879
F         1.39418816833148    4.90155675453577    4.30797166959853
O         7.70432478004842    3.68603286590768    2.90892476228240
F         1.98704336646630    4.56576492843020    2.28401513193689
F         2.51362981330848    0.88140167885302    6.40695738495150
F         4.33324782966786    0.79103353778100    7.53052844995299
N         5.45528308012627    2.23051538872426    5.35112215112632
N         4.78051107899945    4.13466828761873    3.38122552478028
N         8.18991146575375    2.79660813809828    3.76768006667038
C         3.29336569433487    3.22349206363584    5.04411942190435
H         2.28879576386645    3.24241425102046    5.43007525697613
C         6.46031779619277    0.03024429893223    5.61439859146000
C         5.52079574657840    6.30345272490530    2.53445575342747
C         6.34239471606957    1.36511945164261    6.03401413991938
C         7.10126254126699    1.86927567537276    7.10250680316750
C         3.61063930097114    4.05835875345408    3.97299099271353
C         4.59478329994030    4.64750671543490    0.99927114966888
C         4.19980436051678    2.37333117242831    5.67750187433684
C         5.50517503865091   -0.50697300512028    4.56981509438093
H         4.51015750626007   -0.10368927208658    4.79374586331369
C         2.45455987423398    4.93721798636254    3.48667268513824
C         4.96295066223256    5.04078909065151    2.29413374234727
C         7.43047641196624   -0.75809525220854    6.21290206836952
H         7.55856299047719   -1.78197944054102    5.90369227986794
C         8.82041152167898    1.62497021410160    3.29182628274208
C         8.06122219543913    1.04343950413112    7.66752098038239
H         8.67275411066773    1.40416700225889    8.47868870568030
C         3.54972528529547    1.62416118311000    6.83810157498458
C         5.26295979897954    6.81932983710998    0.19607116438917
H         5.36695179130956    7.51744203831789   -0.62136003333405
C         5.65771558515055    7.17992182148704    1.46873964712469
H         6.07726137472274    8.15950967536981    1.63722563437186
C         4.75428692813466    5.55576182334076   -0.03587610715219
H         4.47641843903326    5.27495504703998   -1.03881113510163
C         5.33343249986093    7.97329704953808    4.41855149886566
H         5.58373830608526    8.82495006402879    3.79159170267963
H         5.66553089797572    8.18818900956295    5.43235831010676
H         4.25362021926660    7.85956786413622    4.42320750836601
C         6.82496931707275    3.26435811068087    7.62700873269439
H         5.74078061073692    3.42342812910557    7.58831882888083
C         8.79545610228718    1.29780187307669    1.94000871909183
H         8.31430515436664    1.96544044465406    1.24266245231193
C         5.38930009020114   -2.02953452767072    4.58541370959055
H         6.30194779695300   -2.49633154177714    4.22195113618620
H         4.57335101621742   -2.33667937605933    3.93508673285131
H         5.17935479670165   -2.38893874866068    5.58977637608150
C         8.23726705606338   -0.25149398650745    7.21500799753416
H         8.99288946616601   -0.87826185574759    7.66482494830391
C         9.47668504350645    0.79943107156410    4.20048171741585
H         9.50973613857992    1.06822019780230    5.24575410769454
C         4.15422623617870    3.22669891207879    0.72533367500244
H         3.69028675672793    2.81346202119972    1.62621893398109
C        10.06743642283346   -0.36805540382172    3.75896677811207
H        10.56637103857325   -1.01211381726235    4.46673109847384
C         6.01208669135033    6.70247069884588    3.90699369604202
H         5.78240978356241    5.88918442973494    4.60749665641163
C         9.39851733585615    0.13084015554048    1.50975419335204
H         9.37851562379783   -0.12161106075540    0.46061051416847
C         5.89487964891714   -0.03050375796742    3.16832579033142
H         5.92875895579686    1.07190167443840    3.12592767188207
H         5.15870509169026   -0.36772076013708    2.44265624266586
H         6.86883790602368   -0.42671521694911    2.89105906421299
C         7.53278068968657    6.88428536457903    3.87069310209818
H         8.00018533525342    5.99187012097642    3.46226645165437
H         7.91626091925421    7.06455271101529    4.87308087032850
H         7.80407084437019    7.72875768442149    3.24254884613547
C         5.41870035311068    2.41253444114425    0.43823044553544
H         5.91897459703481    2.79116591698107   -0.45049854348746
H         5.17988998604271    1.36201775166370    0.29011633955610
H         6.09810333396523    2.51043367023034    1.28702043165904
C        10.02526031789880   -0.70902059471377    2.41577377989725
H        10.48827434078314   -1.62267383406615    2.07587126369117
C         3.14616778221706    3.10099010264171   -0.41409715587122
H         2.31508665319215    3.78403569656075   -0.26098576200212
H         2.75630845276882    2.08587509159460   -0.44434992875109
H         3.60570710854919    3.31060463807522   -1.37659199684696
C         7.47911627752591    4.33182972930476    6.74328281645746
H         8.55840096613955    4.18749962776821    6.70567703227012
H         7.28025697773774    5.32177513844856    7.14764708115806
H         7.06133180557354    4.29972536627360    5.72477373917295
C         7.25746501875184    3.45361484664848    9.08001542604718
H         6.87148586711214    2.64989020965221    9.70196528735770
H         6.86371248251551    4.39552338920441    9.45537400227566
H         8.34097998368622    3.48414642397806    9.17073995517214
H         8.73001910204557    3.21483090594327    4.53722115469521

