73
CSD_code = ESABAD | q = 1 | S = 0 | Stoichiometry = C36H30CoN4O2(1+) | MND = 6
Co       -5.08055547186330    5.70564208470364   13.64386569912192
N        -4.97602938436603    3.77977442408573   13.82391059258848
N        -4.02966453063594    5.47029139734397   12.06089993781535
C        -2.35709717639263    6.31057300521186   14.25040094173592
C        -2.83021940835019    5.93493913750015   11.90303873797778
H        -2.36219348205405    5.78767685937474   10.92994220702956
C        -4.71927595983002    3.28140459909466   15.03623570843611
H        -4.67027991742922    3.98941188979800   15.84772384942832
C        -1.37911335500488    6.60901018539565   15.24845856940236
H        -1.62715516985300    6.37385142450572   16.27312123024481
C        -4.49905812240245    1.94096971132324   15.27911849022319
H        -4.30069717020627    1.60075607335942   16.28215475399316
C        -0.18337198428864    7.15838129213023   14.92157267573877
H         0.54039898499087    7.37767450785572   15.69325481406651
C        -5.00772857004459    2.93796647660816   12.78219608086158
C        -5.34773704377668    3.44176103448363   11.41229255637333
H        -6.42089999326676    3.63828498770954   11.40216903558418
H        -5.15657321757195    2.65025989177469   10.68721889772851
C         0.14550812563625    7.47998471864205   13.57993261101831
C        -4.78537320079043    1.57308947692730   12.95437079334134
H        -4.81544793756019    0.92193375907730   12.09501146417089
C        -0.77771611034356    7.17044521823077   12.55119680879538
C        -4.53211287573120    1.05873936641518   14.21069314336367
H        -4.35988129666871    0.00339996118648   14.35218670357448
C        -4.59319801184754    4.71096030270451   10.96460119425770
H        -3.79040534394406    4.41811504864946   10.27814187214347
H        -5.29408127473073    5.34620565219787   10.41274793134481
C         1.67192759750057    8.42635189034795   11.96837600602064
H         2.61043768746287    8.90128754169926   11.72886160183316
C         1.36592406154627    8.10067678825674   13.26382558861266
H         2.05760371094043    8.32112702543128   14.06341256924728
C         0.75304697240432    8.15027156491175   10.95344905011445
H         0.98602313330354    8.42434483925157    9.93550929221752
C        -0.44519752952171    7.54244804084650   11.23786820861315
H        -1.14411162306855    7.37066440089141   10.43323141523723
C        -2.01664107824855    6.52748416046005   12.89309109478273
O        -3.47739894483329    5.81300079536748   14.63877029496798
N        -5.18507854317346    7.63150942215581   13.46382040551415
N        -6.13144553359633    5.94098844293578   15.22683205685345
C        -7.80401332956607    5.10070691511574   13.03732994876127
C        -7.33089075414340    5.47634083747658   15.38469320103254
H        -7.79891613223089    5.62360262799162   16.35779013694651
C        -5.44183239042266    8.12987845021322   12.25149521207611
H        -5.49082848388230    7.42187081262997   11.44000734778740
C        -8.78200250050074    4.80228210763068   12.03927350204925
H        -8.53396059495942    5.03744197660993   11.01461111134672
C        -5.66205243605942    9.47031276954365   12.00861224948517
H        -5.86041246606660    9.81052653320853   11.00557582727418
C        -9.97774576093096    4.25291568620688   12.36616000685214
H       -10.70151698166857    4.03362248128640   11.59447813598499
C        -5.15338220914744    8.47331671394576   14.50553527797435
C        -4.81337657265254    7.96952247497909   15.87543970692770
H        -3.74021297125495    7.77300279160378   15.88556566807948
H        -5.00454396728947    8.76102327577824   16.60051283486272
C       -10.30662370920792    3.93130732301765   13.70779944438765
C        -5.37574005801453    9.83819317752562   14.33336045403588
H        -5.34566737771829   10.48934909695440   15.19271962581175
C        -9.38339678143941    4.24084058701933   14.73653466152748
C        -5.62900015986170   10.35254295019597   13.07703780744081
H        -5.80123169796753   11.40788230552091   12.93554402469145
C        -5.56791100856443    6.70031977864018   16.32313014760395
H        -6.37070260410730    6.99316153180415   17.00959207274426
H        -4.86702533797862    6.06507482424785   16.87498086853037
C       -11.83304239847130    2.98493845317393   15.31935571205548
H       -12.77155388173846    2.51000525713639   15.55886955880247
C       -11.52704039770500    3.31061690604167   14.02390656489308
H       -12.21872229585029    3.09017256158356   13.22431987266822
C       -10.91415916159313    3.26101274496472   16.33428190183485
H       -11.14713468693144    2.98693642492935   17.35222102205454
C        -9.71591360686926    3.86883403180469   16.04986260911691
H        -9.01699682988301    4.04061229726156   16.85449832471161
C        -8.14447003031692    4.88379787061400   14.39464024845586
O        -6.68371143739593    5.59827802449836   12.64896002681835

