59
CSD_code = ESACEI | q = 0 | S = 0 | Stoichiometry = C24H29ClIrN3O | MND = 8
Ir        4.35406925594385    5.47618398666358    6.07559425034226
Cl        4.85336316430782    4.66638064748277    8.23092323491833
N         5.08886700599950    7.29220241354168    6.69915409945157
N         3.98320719512658    7.71912453009985    7.24108741628830
N         3.12721149439807    6.76108678128678    7.03703218857999
O         7.78742600757838    5.86105328755968    8.26655546857990
H         6.88113108591597    5.61883999640951    8.51994885076821
C         6.18558606612319    8.13383486344703    6.63135525886846
C         5.96445264014248    9.51010465256436    6.50833379959925
H         4.94513421513094    9.86492331147155    6.50479650371922
C         7.02374943094557   10.38465474861451    6.39646866014367
H         6.83742050401522   11.44440165652678    6.30464728616082
C         8.32201038529999    9.89992512906806    6.39375662300943
H         9.15611161719560   10.57848541270799    6.29786350720908
C         8.54533026466131    8.54077318241197    6.52519899187933
H         9.55742237870562    8.16418548649019    6.54766434314245
C         7.49840060448091    7.63889532714048    6.64847651187473
C         7.80154685927359    6.17779398466247    6.89683834561593
H         7.08765673130953    5.54667762512081    6.35297417852366
H         8.81319788691032    5.95824567335065    6.53839848215133
C         1.86501908334747    6.79463227344179    7.58810309850843
C         1.09044815189142    5.63487795722907    7.57942827582585
H         1.51631841810498    4.72835497035422    7.17760066464731
C        -0.18197165216905    5.64634051250755    8.11143300050122
H        -0.76961912917239    4.73937224139262    8.10692065838219
C        -0.71778546463126    6.80615940740326    8.65975863864687
C         0.06452332151355    7.95757859813575    8.66974697806100
H        -0.33540570388203    8.86486409097193    9.09945110496144
C         1.33918968785702    7.96340865276338    8.14539117953211
H         1.94616462439217    8.85459566976005    8.15881949926622
C        -2.09184278844144    6.81443441758804    9.25564012733034
H        -2.59428395312683    7.75894019480071    9.05790488794742
H        -2.02848865250321    6.68988118405398   10.33718882276603
H        -2.69500615773267    6.00228657297271    8.85702072972705
C         5.17120293373281    3.73625002709149    4.87944469270554
C         3.74474646594615    3.58708896702171    5.05844593179557
C         3.10192259552832    4.66432541208743    4.38618974364347
C         4.12086047409601    5.53500376810062    3.87978779605530
C         5.39933849064171    4.91864213574430    4.13884640065068
C         6.17075417009516    2.70771169480656    5.29912096551478
H         7.18841031930562    3.05323485474411    5.13720057909616
H         6.01871695370921    1.78995149753598    4.72906336757683
H         6.05587154572358    2.47201216147319    6.35623711990723
C         3.10605113199698    2.36268001592486    5.63192693306921
H         3.56015044305383    2.10597622602219    6.58749073273515
H         3.24688310018815    1.51898711213721    4.95405124063353
H         2.03906660405492    2.50460089319889    5.78543682613482
C         1.63944632130398    4.83317289345977    4.12903397076243
H         1.43506179271223    4.63680279403431    3.07526798842947
H         1.31097110781725    5.84675544557739    4.35275845461342
H         1.04799579173076    4.14468332116025    4.72589526383736
C         3.89989212537215    6.69751243002189    2.96639664677749
H         2.95863700634845    7.19502715842732    3.18854751712285
H         3.86710433451889    6.35494963398800    1.93022031385822
H         4.70604547769368    7.42233618459810    3.05739310452762
C         6.69108953004233    5.40992009762500    3.56904935223090
H         6.67307569568320    5.29474920816265    2.48420062370723
H         7.53605811381462    4.84987918896159    3.95975657910235
H         6.84819289598164    6.46444743810696    3.79286218859910

