52
CSD_code = ESAGIO | q = 1 | S = 0 | Stoichiometry = C18H29NO2OsP(1+) | MND = 8
Os       10.67810969289592    7.47078208599392   10.13748300296622
P        10.67856914635211    7.43807233188893   12.45164868688370
N        10.67836932856373    8.85383316257165   13.23882124870106
O         8.44149498564834    9.48039932467588    9.72353687330780
C         9.30204403277952    8.75063065296304    9.91204412503857
C        10.67829211003915   10.19012125416821   12.63428050730036
C         9.40985314250039   10.95842267854582   12.99712247487936
C        10.67833397206623    8.80409809654110   14.71537078999681
C         9.42108762957957    8.10534096862846   15.21906119528412
C         9.96083759418229    5.30453336808064   10.18211986536232
C         9.52003841763607    5.88050749440810    8.94443883947700
C        10.67829113010032    6.23311470176310    8.18052369892584
C         9.10157973068695    4.54532414553885   11.14497875445636
C         8.11990472363989    5.84193425342175    8.41943241378394
C        10.67833559513991    6.66063446868014    6.74959671641385
H        10.67830385348918   10.03844428286208   11.54488167316078
H         8.52968460882959   10.37256687402091   12.74311436932829
H         9.38060774880331   11.88252678575358   12.42775456039370
H         9.37245533356711   11.21200963940298   14.05232649270326
H        10.67829081761080    9.83209025405157   15.07769786177784
H         9.38770234958045    8.14376081710774   16.30403663579802
H         9.41905143938554    7.06184783566010   14.90914834668203
H         8.52913298910824    8.59026375456607   14.83080237832482
H         9.03773517729785    3.50375188077055   10.82564936086466
H         8.09119631885391    4.94680703722503   11.18258829855357
H         9.51785787681876    4.56103487979432   12.15107125077826
H         7.96623283501672    4.89962903064561    7.89024569500291
H         7.93080625626419    6.65201122515909    7.71811213148900
H         7.38641679087953    5.89986057044809    9.22092091811907
H        10.67833032491922    5.77781798921919    6.10764964803700
H        11.56090232552771    7.24923576223028    6.50893175278146
H         9.79580470919319    7.24927387860802    6.50889293943158
C        11.94666020397044   10.95852957469522   12.99710837607817
H        12.82685867551323   10.37272821258134   12.74308261838718
H        11.97582142956061   11.88262517756708   12.42772426407590
H        11.98405271534170   11.21212280066789   14.05230978717561
C        11.93568564716765    8.10545620297479   15.21895029522955
H        11.96912285943656    8.14385849113448   16.30392313797007
H        11.93779726987061    7.06196766603007   14.90901662637105
H        12.82758087716145    8.59046021370935   14.83065583745275
C        12.05557509711392    8.74946811794161    9.91383163245786
O        12.91424322190671    9.48088194174461    9.72305927184164
C        11.39564041519045    5.30453748615199   10.18216262891924
C        11.83651106440407    5.88058214979586    8.94454640998888
C        12.25487075903112    4.54529663887228   11.14503672554184
H        12.31872209871166    3.50372154737292   10.82571349043473
H        13.26525984423983    4.94676571817032   11.18267616151041
H        11.83857564767822    4.56101162120976   12.15112171249099
C        13.23666712051476    5.84193829136189    8.41957525558069
H        13.39033629226932    4.89962581559395    7.89039105513048
H        13.42582512881991    6.65200059003304    7.71825204189618
H        13.97014064514288    5.89984025699788    9.22107916546303

