80
CSD_code = ESAKIT | q = 0 | S = 0 | Stoichiometry = C34H35B3N4O3Ru | MND = 9
Ru        1.15875389401826    4.68553368356580    4.10235250704285
O         2.97616001812931    3.64783803270209    4.40274886529526
O         4.83718996845533    3.60663051227688    6.00326687003196
O         3.77615696674056    1.57061948604167    5.43689471498522
B         2.76451803671900    2.19255776892209    4.65002357325987
B         3.89491813618922    4.40949325811377    5.30125009385512
B         4.74720864619260    2.25970445137067    6.07420268595004
N         1.39096652550311    2.17848575215516    5.48271754466715
N         0.50431845682352    3.13160059092648    5.21446253085648
C        -0.58224146666895    2.91038339434816    5.95372524672084
H        -1.43187792929858    3.56618013194200    5.90975649337461
C        -0.38923993270025    1.76112076741720    6.71023131017660
H        -1.07459954772819    1.30966503691262    7.39732521831450
C         0.88551825985526    1.33097665341091    6.37484615166812
H         1.45531963503639    0.49145260191047    6.71706999167322
N         2.88267498049443    5.05423523476844    6.36452761419279
N         1.66635020004792    5.36522723690848    5.93219306418851
C         1.00143601293683    5.94031998925843    6.93288929554843
H        -0.01689454726842    6.26282900898597    6.81722085406840
C         1.83238106827703    6.01410812785876    8.04447341362320
H         1.60197061127453    6.42745436579926    9.00461518111180
C         3.02255605695233    5.43555258747055    7.63130478273036
H         3.94298720091789    5.27388343228512    8.15373158575633
C         2.47224510831888    1.43513973162096    3.23902997863703
C         1.58124452074749    0.37203299047796    3.11644236830274
H         1.04966327556119    0.02278544527038    3.99122317305968
C         1.36462226948622   -0.25638809761498    1.90186961132048
H         0.66765064145171   -1.08080945626544    1.83681649733806
C         2.04066994252754    0.16532160971919    0.76982237388600
H         1.87207246858344   -0.32187837861433   -0.18060324174339
C         2.94326572016807    1.21076961712714    0.86892862366901
H         3.48650213094552    1.53902799657026   -0.00766889735599
C         3.15399848596672    1.82906319983443    2.08954434430589
H         3.86949287084568    2.63581227602754    2.16478490770039
C         4.55520423815150    5.62935052216612    4.44945465227760
C         4.50951451406235    6.96611142505564    4.83669944417862
H         4.03878605072433    7.23612144184846    5.77282604898503
C         5.06420421592489    7.96720172661023    4.05451427143739
H         5.01930049114721    8.99739041738032    4.38344210336105
C         5.68056969902703    7.65312330072162    2.85572363029286
H         6.11056884803775    8.43303044307592    2.24267116242799
C         5.75131321368775    6.32884584165900    2.45614181211479
H         6.24249004138295    6.07178485013357    1.52733494839038
C         5.19935021768745    5.33715545745368    3.24776585586988
H         5.26984000862502    4.30408387182707    2.93907837039257
C         5.81331252438866    1.46467388674743    6.93671587680275
C         5.77997193245406    0.07375639999589    7.01969538001927
H         5.01193458477875   -0.45357140996195    6.47298217103515
C         6.70566277686102   -0.62301196187200    7.77542264685918
H         6.66380774375708   -1.70264022382427    7.82557295883036
C         7.68982145467663    0.06160900499348    8.46906265279331
H         8.41488178873305   -0.48036871589617    9.06060424974061
C         7.74161561657951    1.44395577596728    8.39946359870336
H         8.51005527207031    1.98169720606492    8.93816620915571
C         6.81274156334153    2.13362870635028    7.64117765200008
H         6.84976935282068    3.21143494224169    7.57847887202880
C         1.00068727171889    6.77901332187281    3.15518106248064
C         1.84370684947254    5.99064845605990    2.36036871148614
H         2.82279449008921    6.36313964574477    2.08324531062967
C         1.39823165637230    4.74271941050146    1.84948807898774
H         2.04832618243221    4.18217375601745    1.18785321622398
C         0.10172717336887    4.26489841131091    2.09663845956730
C        -0.73812576450254    5.04795990042287    2.94391292228303
H        -1.76377611420340    4.73754262268358    3.11277004905838
C        -0.30387050974831    6.28267520577743    3.46001329226390
H        -0.99680438656698    6.91381952985542    4.00815558202093
C         1.40825715803898    8.14857948459382    3.60618749741216
H         0.99410790662166    8.89481320969197    2.92588205960546
H         2.49154062827097    8.24477790077264    3.60998933438889
H         1.03312089817218    8.35701501597991    4.60646613644069
C        -0.41347807217688    3.03912289987543    1.38028376569872
H         0.45007342351208    2.44380930248822    1.06787228823786
C        -1.29542587288072    2.15691963041757    2.26227784574269
H        -0.78739754541232    1.93690009107457    3.19795137345149
H        -1.49269989338804    1.21744856009448    1.75302097001017
H        -2.25030261007952    2.63156672470431    2.47711406881138
C        -1.17583164770124    3.48938003478164    0.12788668333018
H        -0.53431040055320    4.08167110679462   -0.52093082876783
H        -2.04034054525538    4.09167167399519    0.40104962748133
H        -1.52118511003675    2.62114215624978   -0.42699140276245

