55
CSD_code = ESANES | q = 0 | S = 0 | Stoichiometry = C22H21Br2Cl2N5ORuS | MND = 6
Ru       11.47569829446966    6.80071484519021    0.44707911219631
Br       11.14937619240010    2.23113554411327   -2.90081342531057
Br        7.67084745122951    6.33392859543161    4.59617639449695
Cl       12.02907185827477    4.94507509703760    1.78418005381537
Cl        9.27448550868788    6.18327697205052   -0.25237030757827
S        10.96959391933573    8.58259204530357   -0.93190573667068
O        12.09063710554804    9.48436945276647   -1.17645027267640
N        13.17447053310228    7.74549273405980    0.79624571432382
N        12.33776878518913    9.31797831010023    2.41039764685637
N        14.48003522527755    6.77917985295460   -0.92496523680640
H        15.40576311698637    6.81567240826365   -1.33143548159295
N        12.37838896097270    5.69269298067549   -1.05253906871971
N        10.70032980356721    7.59411579480682    2.13026356121187
C        13.18984175804058    8.91831318308018    1.53586609052911
C        14.39885157165013    9.65529907743142    1.19805584356729
C        14.91954611142300   10.85324469906267    1.63739561192472
H        14.39604247128167   11.43034222322061    2.38298975935508
C        16.12289500569648   11.30160372784745    1.09906251271742
C        16.78986311464202   10.54258092942177    0.12333151038855
C        16.25794671735066    9.33501593721918   -0.31822756455097
H        16.78151550160011    8.76555285495650   -1.07371458545655
C        15.06348988756555    8.89329244177991    0.22144164875791
C        14.22264736637824    7.73730813243752    0.00100570093055
C        16.70169961466924   12.60115357294878    1.56340781357718
H        17.69326796742066   12.45103289518844    1.98910156591229
H        16.06617811389233   13.05544584352554    2.31814058427417
H        16.80275515492339   13.29631829375678    0.73070324991512
C        18.08161110951271   11.03406754829823   -0.45167625031526
H        17.94242694278389   12.00136313488219   -0.93277947430125
H        18.47071478006449   10.33544092051148   -1.18752820110976
H        18.82652201854033   11.16131530661876    0.33286680676837
C        13.68797129913678    5.74729348875827   -1.35905412286804
C        14.30538916777649    4.77431223117021   -2.16484192098905
H        15.35764942865186    4.86462082062391   -2.38736270698924
C        13.58145287694662    3.70966774876770   -2.63899422719188
H        14.03298362418864    2.94268157610999   -3.24763979748425
C        12.23320317067832    3.65314309925771   -2.29191464575500
C        11.68249637549130    4.64447455648574   -1.50804069589073
H        10.63325957858185    4.60119692109087   -1.23740682170033
C         9.68174469199264    6.93944990216392    2.69377311011366
H         9.30026479508473    6.07031884451266    2.17090359303978
C         9.11484810579232    7.32521076072720    3.89157581771493
C         9.59839107272329    8.44224477100587    4.56951877362744
H         9.15512634732985    8.76265277602842    5.49919938066099
C        10.66821346967327    9.09491636286467    4.01215581848129
H        11.12873684428464    9.94580207976607    4.48604264554587
C        11.23551548112741    8.63831356622041    2.80750111346767
C         9.57436890013873    9.60424136296010   -0.36468187571629
H         9.86509597179637   10.05835037964339    0.57808860744096
H         8.72489186177353    8.94318146978464   -0.22982290619248
H         9.37305885607110   10.37081178654294   -1.10350087045800
C        10.30855226622016    8.15738617108062   -2.57459080703854
H        10.13031879558616    9.07951864852588   -3.11520387430314
H         9.40021404302570    7.58222498276041   -2.43617441546581
H        11.06117101354737    7.56247033797368   -3.08383474835672

