31
CSD_code = ESAQAQ | q = 1 | S = 0 | Stoichiometry = C8H16AuN4S2(1+) | MND = 2
Au        0.21522480933000    2.94689766070065    6.32585393688197
S         1.93367087259358    4.03555314758527    5.17087157804649
C         3.15029196560583    4.29633384664913    6.31069329914830
N         3.11235289684034    3.94366588755884    7.59990378967308
H         2.33767466193849    3.47045274625876    8.03439177328863
C         4.32518929403786    4.31576344011178    8.30771503144075
H         4.81519390238119    3.42958526989228    8.71960623260773
H         4.09420815382432    5.00028619416403    9.12821191356997
C         5.15683385413798    4.98574865704860    7.20005737560997
H         5.37945855895362    6.03400605619863    7.41942237025611
H         6.10033342001154    4.46532860328666    7.01169224432777
N         4.29937996651949    4.89615393353129    6.02876800428546
C         4.71654496999134    5.42351242291519    4.76229323099034
H         3.93280062396168    5.25377080284941    4.02790102556129
H         5.63195868584344    4.92829376007342    4.43322594422791
H         4.90553684504810    6.49535636506013    4.84628067739657
S        -1.50333127001811    1.85862903319167    7.48082825359268
C        -2.72011170808078    1.59761951002955    6.34123567722866
N        -2.68245347420488    1.95016242204252    5.05199300661335
H        -1.90784529076474    2.42335564046604    4.61735759882928
C        -3.89540170949881    1.57792453271474    4.34445544204697
H        -4.38556563693070    2.46404273631340    3.93262973718615
H        -3.66452608388517    0.89338902023416    3.52394692025506
C        -4.72675154088881    0.90791724591712    5.45232312580330
H        -4.94928119572208   -0.14038982433962    5.23307107096744
H        -5.67029047001632    1.42822683070157    5.64081566793347
N        -3.86910251278796    0.99771451442343    6.62345041893040
C        -4.28600613557655    0.47051598835776    7.89007402847228
H        -3.50220224475248    0.64053134541650    8.62433879861152
H        -5.20146544602202    0.96563287065444    8.21916405583334
H        -4.47481876186902   -0.60138066000770    7.80632777038446

