109
CSD_code = ESARUM | q = 0 | S = 0 | Stoichiometry = C61H45OPW | MND = 6
C        -0.36449680133745    3.97519283364003   12.30268181181182
C         0.83005049942156    4.78400541425349   12.23712155162590
C         1.58463313214227    5.12228863024455   13.36157899675552
H         1.24321544732760    4.82880081612751   14.34503147957166
C         2.76133675608501    5.83452454033449   13.22460811970076
H         3.33671680161571    6.08789928256613   14.10390688198620
C         3.20372016404123    6.22448230244689   11.97221672309812
H         4.12456220867422    6.77927465004297   11.87037689706357
C         2.45601152614396    5.90314165448062   10.84930020261519
H         2.79371098825831    6.21003499389811    9.87003240027437
C         1.28415226038864    5.18795416950828   10.97546148517655
H         0.69709871669446    4.92036266272381   10.10632130373468
C        -1.67344937973410    4.05771514620649   12.23629764048232
C        -2.66251037239692    5.11157888423413   12.30131353114067
C        -2.52979141515050    6.17693066463726   13.19374430142130
H        -1.66152908310277    6.22214968692685   13.83525911964606
C        -3.49906182475904    7.15824452167311   13.25622966190612
H        -3.38964530072431    7.97630586566442   13.95369195562932
C        -4.60694857001214    7.10059271475228   12.42665852577407
H        -5.36427458049302    7.86885109929857   12.48073196059980
C        -4.73643579969213    6.05985977735329   11.52048827668903
H        -5.59298439477496    6.02136258990331   10.86277237374570
C        -3.77683392020731    5.06936138794514   11.45963036701156
H        -3.85842168377424    4.25908612382373   10.74493762622555
C        -3.14869587139264    1.53974141861643   12.35560849079924
H        -3.93739861992009    2.24124820736727   12.04815377323253
C        -3.55986530413896    0.16713521145618   11.89980464993395
C        -3.21660215138361   -0.26625026063144   10.61874467530730
H        -2.64401709535085    0.39667035102674    9.97113279616196
C        -3.59871931130463   -1.51670709781124   10.16753336638921
H        -3.31627518752977   -1.83957558374492    9.17573213546112
C        -4.33118951829732   -2.36037199220814   10.98660601095838
H        -4.61773462510931   -3.34273646694481   10.64032193114217
C        -4.70087699889434   -1.93242735067032   12.25022390854686
H        -5.28699809975237   -2.57834492860494   12.88880965971882
C        -4.32817916181239   -0.67790934904055   12.69666131474397
H        -4.63432776332046   -0.34546337364678   13.67928799666476
C        -2.91865904305232    1.66748850234649   13.82110331819196
C        -3.50390141964946    2.84259744883793   14.49738699126465
C        -4.81841990325137    3.24111260536193   14.26218725321773
H        -5.44719388416831    2.65323497327609   13.60863104365253
C        -5.33658953346332    4.36337422984648   14.87999568716574
H        -6.35851989698892    4.65625965112169   14.68854452307814
C        -4.55225401986873    5.11102438951383   15.74053198161680
H        -4.95801781966570    5.98915386060541   16.22003253844695
C        -3.24241574990041    4.72896232891021   15.98019531131415
H        -2.62386014538773    5.31198394686180   16.64724298378593
C        -2.72232860583970    3.60930098892548   15.36365916301761
H        -1.69491493084452    3.32000203768331   15.54505108774081
C        -2.18414851466754    0.75157563406802   14.54026513573326
C        -2.21189354843469    0.69062559164764   16.00736678372851
C        -3.40195469048886    0.88604270930238   16.71165979041287
H        -4.31156682372617    1.10320216261453   16.17151407474661
C        -3.43535336086349    0.78839026905980   18.08823641665067
H        -4.36746066932608    0.94358358904995   18.61230999906580
C        -2.28524508664887    0.48179721841387   18.79691624735768
H        -2.31332616537363    0.40395444559255   19.87379138930767
C        -1.10246875537240    0.26458235191113   18.11086080880314
H        -0.20066673614940    0.01360521035440   18.65146954192977
C        -1.06628063421760    0.36319791480893   16.73379259993158
H        -0.13635778936151    0.18994956889919   16.21295993450676
C        -1.37843049073911   -0.26669749670436   13.83542564357652
C        -1.13393849770688   -1.55834817219910   14.50074225527728
C        -2.18264020232417   -2.26262104686953   15.08609394856051
H        -3.18108229017714   -1.85460746743867   15.04807959602875
C        -1.95519993586089   -3.47985765273096   15.69878461212186
H        -2.77940136168705   -4.01865747559355   16.14360006679695
C        -0.67614511114327   -4.00802842286506   15.74820617381422
H        -0.49877026111219   -4.95794749882600   16.23090237048627
C         0.37647487169116   -3.30844833960248   15.18168943898472
H         1.37928045973922   -3.70903041163563   15.22634220487014
C         0.15070340340897   -2.09479870629073   14.56239904795636
H         0.98006463146332   -1.54463361310192   14.13770308448180
C        -0.86821256235460    0.06532607314253   12.62414872029347
C        -0.05819621477795   -0.84077244996411   11.81731801868397
C        -0.37249147282575   -2.14930970779159   11.45506967666600
H        -1.29588173925588   -2.59014811484913   11.80089959867092
C         0.49022435663276   -2.86201602660555   10.64198720167000
H         0.23784526663061   -3.87328867146296   10.35781887132598
C         1.67561401353502   -2.30115381675495   10.18686507475197
H         2.33680124027155   -2.87518889761076    9.55485526677280
C         2.01030038762364   -1.00065926537735   10.53311224832787
H         2.92431102168807   -0.54957046662187   10.16998208442085
C         1.14183614994567   -0.27804887033591   11.33158999449269
C         2.01112436366055    1.26149504396553   13.56433179955820
C         3.16814507785839    0.52440436489265   13.79316139540459
H         3.65487037400140    0.02527503269714   12.96615752284077
C         3.67663087568761    0.42868951551824   15.07581226070538
H         4.57259485937136   -0.14613636974162   15.25831864778094
C         3.03890186879915    1.06968889534974   16.12695597453277
H         3.44385108833459    0.99780129028778   17.12524570009844
C         1.87726783730950    1.79216884523851   15.90430638558621
H         1.37590654535337    2.27807571010487   16.72853115274500
C         1.35703892179631    1.87763079208884   14.62510756245529
H         0.42681985250326    2.41659485588693   14.42876994822473
C         2.57167833550145    2.17541023274396   10.86885785660284
C         3.78116015655837    2.68066315365735   11.32918334979620
H         4.04027498020921    2.60468121697955   12.37570609317278
C         4.64757203342863    3.29022324113839   10.43867925671017
H         5.58907432058005    3.68304580960101   10.79331922819167
C         4.30937450038322    3.40415567386035    9.10078377832845
H         4.99133838377534    3.88154237945813    8.41274798502463
C         3.09099103556120    2.92170813807723    8.64439365358198
H         2.82275448946085    3.02863496344153    7.60373139387406
C         2.21769602329158    2.31865554004023    9.52683480625493
H         1.24176564698795    1.96619640235876    9.20471843226496
O        -1.11728732661781    2.03728553741380   10.07092068956604
P         1.28369498230424    1.43884112171758   11.90740318849191
W        -1.11335282857330    2.06526430445329   11.76698823178218

