135
CSD_code = ESARIA | q = 0 | S = 0 | Stoichiometry = C100H30MoO2P2 | MND = 8
C         7.54047818442293   12.00658008057863   14.63066596593269
C         6.89051613635144   15.84317208436491   14.31031154637814
C         6.13272193947727   12.64444911013005   11.12152039601287
C         6.16331402532742   11.28461910787261   11.43006685015958
H         6.86304970197135   10.92361841219962   12.17308441393422
C         5.31083159906880   10.40697073673391   10.79099435303519
H         5.33698487344502    9.35553941335374   11.03587263367308
C         4.41274087791112   10.87974179869891    9.84602455978467
H         3.73732685663944   10.19586850647987    9.35394224076584
C         4.38106040641756   12.22778604058325    9.53418213730628
H         3.68205473953398   12.59661360130743    8.79790646576512
C         5.23625622184972   13.11303660407980   10.16879454965029
H         5.20407047883303   14.16476429638410    9.92081893214364
C         7.28222013005028   15.24637180842240   11.11449918649029
C         6.18253530843491   16.09580755296764   11.22385591727805
H         5.34298021609355   15.79950037418639   11.84096722749771
C         6.16892769128536   17.30673007302538   10.55902537182694
H         5.31276594344187   17.95914843923736   10.64729830861379
C         7.25762371193476   17.68557088793491    9.78904033163570
H         7.25102859342482   18.63485328551376    9.27423682437703
C         8.35698875372544   16.85019460985103    9.68535888907896
H         9.20840534890992   17.14771142555957    9.09037771834972
C         8.37393487281394   15.63306966549335   10.34472011021766
H         9.23770596542228   14.98627813822798   10.26400543541871
C         8.83575721489065   12.92271971233111   11.74753157708165
C         9.16012524517157   12.33723471420811   10.52900552851349
H         8.46526833073849   12.40572266913126    9.70214643174598
C        10.35438419877725   11.65382767689385   10.38960104594720
H        10.60679045150355   11.19407710235148    9.44582795739724
C        11.21615920455482   11.54304347341352   11.47065155665727
H        12.13987114369289   10.99316921839278   11.36726436436994
C        10.90130516972179   12.13099305620179   12.68247855434655
H        11.57931046860758   12.04339838089318   13.52031261936666
C         9.71269064752478   12.84024991295691   12.83507836909914
C         9.38511704095439   13.52753675273421   14.09316427109698
H         9.98719064356954   13.18454887345883   14.94208959294174
C         9.15806020385544   14.94561608481241   14.03334070212132
H         9.27528450807188   15.39736151165906   13.04190192845182
C         9.72028411433486   15.76882379754982   15.11433679858871
C        10.62506040482113   16.79404490894499   14.85081552319726
H        10.88752192875180   17.02100047993367   13.82662721510800
C        11.18614902698837   17.51750058976026   15.88765806852056
H        11.88403950150211   18.31204895668358   15.66871870197452
C        10.85789078171224   17.23057038673172   17.20429438417532
H        11.30026641967380   17.79820214885882   18.00920472560158
C         9.94612619034191   16.22883155349044   17.48351857620710
H         9.65906833701628   16.01479315768151   18.50479059496185
C         9.37381335373416   15.50424855643899   16.44415010139701
C         8.90017247894885   12.87726568746042   17.48811837824369
C        10.26016604260491   12.86460383033600   17.77817272034198
H        10.86890412916908   13.73343350671843   17.56493174469655
C        10.83625487782313   11.73615740676113   18.33604848125838
H        11.89374573915441   11.72984260115403   18.55760184213915
C        10.06463129935834   10.61867325540869   18.60635372474189
H        10.52000645374001    9.74058702564446   19.03971173863827
C         8.70964035155917   10.62439533123049   18.31386541180171
H         8.10621468131204    9.75203718070822   18.51718384206790
C         8.13041213749808   11.74560106521317   17.75187742111376
H         7.07566538160037   11.75261408563041   17.50549826050821
C         7.13745197843164   15.03973197126686   18.04362627585523
C         6.83384902501093   14.39532605246811   19.23672277923680
H         7.19942898799301   13.39554948730500   19.42503855521093
C         6.05960604245102   15.03773655466143   20.18838235235112
H         5.82144768078225   14.53152918968625   21.11238101692338
C         5.58432414721042   16.31665180536229   19.95607550570470
H         4.97391224108160   16.80886638054307   20.69846269495691
C         5.89110758438503   16.96605549776513   18.76984988811513
H         5.52147070867782   17.96403828540577   18.58660858016321
C         6.65929859163626   16.32993480192540   17.81558564951882
H         6.89830429595446   16.82888487390706   16.88510643908116
C         5.04427601994522   13.53203522142021   14.15324274233084
C         5.30643396190312   13.69045745988869   15.59805680729376
C         5.02747712924697   12.53176530589877   16.46263951826652
C         4.67552158198986   11.29094420049598   15.96368545079347
C         4.41804127095493   11.13546849762072   14.54254996855608
C         4.52456107159779   12.22946103189692   13.70604066330045
C         3.52381091586563   12.42678370889347   12.69768250926837
C         3.28518938042273   13.83589041287982   12.58068659336367
C         4.13612097699850   14.50549461638016   13.52418189758391
C         3.64797468254994   15.61487781015013   14.19020709631436
C         3.90630105494715   15.77046990311900   15.61125327865948
C         4.63397761691782   14.80699128068012   16.28223162132858
C         4.18759477744615   14.38352679899228   17.57799372609766
C         4.43470479519087   12.97571555669577   17.69305201629218
C         3.55221929359294   12.16915571740002   18.40288908166105
C         3.19454686717702   10.88139112985195   17.88077311145147
C         3.74398277405893   10.45877096373431   16.67355479523954
C         2.91245837023505    9.78863236686858   15.70614540160205
C         3.33024528264188   10.20861401943092   14.39292242527421
C         2.38024672234958   10.38831446121740   13.39203058053764
C         2.48446509072243   11.52327963392375   12.52068352510257
C         1.15411798740848   12.00690146943868   12.24669643423946
C         0.91980585537527   13.37004277127403   12.13926421447633
C         2.00652456424157   14.30448637088299   12.30022970771176
C         1.50839334068259   15.45843258095100   12.99240534787866
C         2.31854367954136   16.09351138530602   13.92952008133605
C         1.75114299431104   16.54489829225224   15.17479326678146
C         2.73253347397279   16.34368601051419   16.21008653909713
C         2.32302696304375   15.95158920914526   17.48097949545866
C         3.07355394051781   14.95029918008102   18.18262815397602
C         2.14731742432753   14.11390421470807   18.90476540544909
C         2.38161490838650   12.75076363172507   19.01229405137019
C         1.29495963573197   11.81711875486044   18.85752183191156
C         1.79835184397361   10.66150387403197   18.15592516414583
C         0.99950720062610   10.01661669852089   17.22113423742959
C         1.56883176689774    9.56821361587781   15.97443051495307
C         0.58534101187362    9.76529641398943   14.93867711532999
C         0.98499934503639   10.16828695866095   13.67131347581629
C         0.22509096661470   11.16873999399162   12.96172045768641
C        -0.90375416165615   11.72738691667068   13.54554476259861
C        -1.14733139987093   13.14436083492023   13.43395160369672
C        -0.25289069193455   13.95051536221893   12.74281607575225
C         0.11250932866176   15.24189441945484   13.27184717066210
C        -0.43085958969462   15.67696413020742   14.47321089241671
C         0.40390702829062   16.34477409497690   15.44099485252833
C        -0.01689783778215   15.92825259833544   16.75563723600776
C         0.92639373393571   15.73520155665042   17.75624069698799
C         0.81660451533170   14.59884032903844   18.63856855936490
C        -0.23055917400183   13.70009254894028   18.48699688603018
C        -1.20935837183801   13.90286055263050   17.44872208353642
C        -1.10381710819431   14.99671114761714   16.59994314953428
C        -1.35975414010783   14.84150150062946   15.18876122672055
C        -1.71152689701093   13.59824453244553   14.67985906578067
C        -1.81791853543869   12.46277432770694   15.56107534875330
C        -1.57149357021177   12.61223022077192   16.91939279557754
C        -0.81525629362331   11.61158013412943   17.62928346143977
C        -0.33047129241715   10.49905989147186   16.95421756880230
C        -0.58658739215469   10.34382077687866   15.54305957508219
C        -1.31774319773894   11.30691726514752   14.86046294931954
C         0.01302785016389   12.28312061796330   18.59861520554886
O         7.86208512435401   10.91272582578246   14.71387472866499
O         6.82936160365322   16.97686977152142   14.17659808820165
P         7.24171032603546   13.71069081396092   12.08229341000332
P         8.06667830078406   14.27651070505745   16.68559809561377
Mo        7.21546333931413   13.92499199616408   14.47106334919512

