51
CSD_code = ESARAS | q = 1 | S = 0 | Stoichiometry = C20H26ClN2OPd(1+) | MND = 4
Pd       12.49175209682524    8.56746814029873    3.36962049483571
Cl       13.24375563360620   10.43516056220026    2.49591686756559
O        11.84919924164134    9.40044768301397    5.41940833225282
H        11.67700726878044   10.33423536583153    5.61263641407054
N        11.72939823016240    7.04467860396284    4.26609062783525
N        13.01902126984877    7.19670197344776    2.13380741333145
C        10.83719256931136    4.79829798410624    5.51970355900120
H        10.48977250073598    3.91496246690226    6.03151753168193
C        10.66445763063871    8.63265123858136    5.71504741321783
C        11.56541899166495    4.67860788750471    4.34815915406889
H        11.78379015198454    3.71090311599695    3.92784303481113
C        13.16530145789292    4.77937156815925    1.68891390652327
H        13.71998517765795    5.07706138223549    0.80285652010088
H        12.28501138897902    4.21371440147122    1.38476580953489
H        13.78265336372710    4.11394290626767    2.29120464093466
C        13.74177403383257    7.56935080827303    0.98905838242828
C        10.53461457523499    6.05664014454160    6.03615110597290
H         9.95159736227223    6.14609649906928    6.93686350161242
C        15.16215280515816    8.28719600556324   -1.25725018065165
H        15.72078842185246    8.54141494893999   -2.14398640643787
C        10.99607496955332    7.18135628710214    5.36937772994359
C        12.01173832287754    5.84370994874434    3.72598456395368
C        12.76244952416098    5.97443107885522    2.48454577190700
C        10.84547197174891    6.66258864842503   -0.46220959858867
H         9.77621799770599    6.82019826106638   -0.57602320424857
H        10.99989375019090    5.94624786797303    0.34033211305155
H        11.22799979639184    6.23727659263527   -1.38657921254218
C        13.04312929921435    7.90699372388484   -0.17686692473460
C        11.54077220845147    7.99182788750535   -0.16631638495167
H        11.21071950207828    8.37640875656920    0.81868729001801
H        11.23959357573230    8.71731922860216   -0.92294360583545
C         9.54001553736154    9.07669946062766    4.76037562705775
H         9.90688633039373    9.05653199298244    3.71748448326428
H         9.22611661132650   10.09154270413824    4.99839386470710
H         8.67767963872513    8.42009628745856    4.84522949256322
C        10.27712458970612    8.83726816884296    7.17587266900754
H        11.05702998033217    8.45995143132425    7.83293839074474
H         9.34195086576362    8.33483714228670    7.40231653611893
H        10.14282445428878    9.89846994185764    7.37597606721384
C        13.77939384691168    8.24121666350535   -1.30310835516704
H        13.26071720879461    8.49231739612924   -2.21536873650434
C        15.12895607334938    7.74278142137184    1.09067914888404
C        15.82237014989447    7.65997780196390    2.42509536256440
H        16.67051535214072    8.34598169680094    2.39986338157640
H        15.13556024898314    8.00858691004415    3.22644559142392
C        15.82526051903422    8.08168885497153   -0.05977474897656
H        16.89536390401655    8.21035541738955   -0.00708442305017
C        16.34160258033952    6.26164479995644    2.76219671488088
H        16.94974954900559    6.29910810412094    3.66207021724896
H        16.95714876621214    5.88401696712457    1.94941756541360
H        15.52582870351349    5.56446486937539    2.93246449037082

