77
CSD_code = ESAWUR | q = 0 | S = 0 | Stoichiometry = C32H33BIrN6OPS2 | MND = 6
Ir        4.76900649267518    3.02440707035684   10.28902286838051
H         4.82839519348929    4.24012529708501    9.34710125383644
N         4.53254594076005    5.36451424681846   12.25669721531343
N         6.38891216881819    6.37520181908100   12.84282085534892
N         3.45356727520168    3.28463934034218   13.01359065021106
N         3.45979440227380    1.52827118775831   14.32655870977158
N         2.24684013901746    4.74282843310861   11.46021286971013
N         1.16610499328413    4.11447925828638   11.96746944570478
O         2.09355988490022    2.19500036119363    9.23121945005524
P         6.41708112532151    1.63850914197082    8.98991744309189
S         6.74539040538022    4.06119412095650   11.47507341181311
S         4.65347107243137    1.12312980358196   11.94290899486453
B         3.61564897862140    4.20785003016412   11.77915242120226
C         5.87057806587739    5.29789778561420   12.20969182696208
C         4.19630535243363    6.50567477450599   12.93450992336410
H         3.17434161947644    6.77725418423936   13.09926070920516
C         5.33670121045593    7.13740796952764   13.29731759737038
H         5.49495462959361    8.05250275343158   13.82945074952786
C         7.78429215850777    6.66989988621329   12.98888764777532
H         8.34670955824119    5.94874744041072   12.39678627158289
H         8.08839031856679    6.59052333609761   14.03489956281253
H         7.99609860917946    7.67857049036230   12.63157268914188
C         3.82662014731751    2.00185601180744   13.11362210111142
C         2.82524631718054    3.62552910455982   14.18314821597298
H         2.41752396469756    4.60133810176126   14.33649417566851
C         2.82512300920610    2.54809301966573   14.99803699410488
H         2.43622695702954    2.41227903233524   15.98588269245432
C         3.66476515500995    0.19196204784840   14.80282159981629
H         2.71031972763776   -0.32870723914454   14.90621106162306
H         4.16954855393298    0.20791509105809   15.77032124559916
H         4.28411595400335   -0.33815834167741   14.07972289389486
C         1.85490967407537    5.75229774297763   10.63621425216974
C         0.47791299007398    5.76751363804052   10.63325644867581
H        -0.16420133891733    6.43613386872834   10.09549306216112
C         0.09647995035216    4.71537530929156   11.48425936765100
C         2.79462533025808    6.63721759498361    9.90098935292263
H         3.27309978307486    7.35412646778732   10.56879433031192
H         2.24882247283455    7.18682555843426    9.13858456263076
H         3.57225849028793    6.03984383127170    9.42924007643034
C        -1.27930187554082    4.27845094836405   11.84617836976354
H        -1.81212542084981    3.93991784095946   10.95836992036032
H        -1.84077645055046    5.10281963034095   12.28533047296825
H        -1.22353750476807    3.46095325053049   12.55969799520216
C         3.13520306290605    2.51018364336904    9.60847398472542
C         5.76037123513147    0.71979328694096    7.55868814239629
C         4.54528761272332    0.06218366896212    7.74074893547114
H         4.05351034155090    0.11929206391992    8.70339184193378
C         3.97458379619959   -0.65238193260339    6.70570509018413
H         3.03448590657294   -1.16236838746023    6.85644104027916
C         4.60575879891175   -0.70485306140919    5.47258967445409
H         4.15874549350959   -1.25776302658459    4.65948916132321
C         5.80578235424244   -0.04136887401612    5.28214973784083
H         6.29531916328322   -0.07626066589534    4.31947959454895
C         6.38511826201895    0.66976273903308    6.31912676542716
H         7.32040715575209    1.18732209994248    6.16096161938200
C         7.91698436307414    2.41490102647613    8.29740887666280
C         9.11172498410485    1.71954136133625    8.13416218183368
H         9.17640394857371    0.68045417346212    8.42695651588442
C        10.21472245756535    2.35724648280866    7.59687890719044
H        11.14022313444879    1.81337684105594    7.47210341223185
C        10.13621975181036    3.68795865278121    7.21800324751865
H        11.00204458631564    4.18190004230774    6.80137396017439
C         8.94861733788860    4.38282052528589    7.37552252465771
H         8.88561575860126    5.42042997113942    7.08127948784304
C         7.84323953644076    3.74927908648735    7.91389794625124
H         6.91283062052094    4.28377797296508    8.04973875308709
C         7.15906752306177    0.31011019336630    9.99354796335120
C         6.85123140055783   -1.03590105625328    9.84446186488987
H         6.18441705756719   -1.35756870696050    9.05730800995686
C         7.40166750814540   -1.96981885545514   10.70515038708889
H         7.15971609907915   -3.01598920629838   10.58251561606527
C         8.25298623100134   -1.57029032535839   11.72045905188291
H         8.67596322585791   -2.30329249561644   12.39228143999319
C         8.55650138208810   -0.22685331104599   11.87811844823803
H         9.21508852234407    0.09056309090868   12.67400066177794
C         8.00962674223435    0.70872565232938   11.02347330815779
H         8.23368916498202    1.76017608900459   11.15072008874700

