45
CSD_code = ESAWOL | q = 0 | S = 0 | Stoichiometry = C15H18BIrN6O2S2 | MND = 6
Ir        6.13859433661718    2.19234903334224    1.53882715179094
H         7.04919190373335    1.63391511206980    0.42465290677531
S         6.96859578216287    4.56938758320791    0.95299620904726
S         4.68353559949269    3.09814315405050    3.38663365934588
N         8.68767462906983    3.49531227241789    2.74088357814421
N         9.31392242665519    5.44843347685735    1.96453933339525
N         7.13293273406794    2.63621896954705    4.45323280004968
N         5.61545321210025    3.27349220020061    5.90435798773093
N         8.75818905488905    1.11080346776223    3.38888534321110
N         8.59602643082407    0.35605157785060    4.49506957264471
O         6.07260954686870   -0.40254423953098    3.05300186379231
O         3.74009353205593    3.04423896710424   -0.17324506379163
B         7.81565085136481    2.25325663174033    3.11555932727778
C         8.35342868317909    4.49786368336251    1.91758089321841
C         9.88780233612298    3.81986298111116    3.32147836765349
H        10.36901838001931    3.16340956467111    4.01545785352149
C        10.27965504577403    5.02357052452670    2.84599376476466
H        11.15252920560460    5.60837847016370    3.05012284550028
C         9.31934317749540    6.67403500086087    1.21944826504303
H         8.54156201582685    6.61609153844135    0.45915375738395
H        10.28876906106742    6.81571423270298    0.74137628781646
H         9.11537579098798    7.52423630317917    1.87400770015008
C         5.84916585807445    2.99187162465746    4.60471380075146
C         7.72314244525603    2.69556509472559    5.68943943218582
H         8.74576525351291    2.42491628980999    5.83510887756507
C         6.79310679692373    3.08756213428532    6.58863047817840
H         6.86064040133472    3.24453974583830    7.64498326211213
C         4.35843174476196    3.69213436287722    6.45305609124369
H         4.28356749958684    4.78259717584618    6.46502492048348
H         4.25922902899682    3.31385914983244    7.46919725571665
H         3.55366918728517    3.29661125882837    5.83321275925012
C         9.74859044611829    0.59338179122815    2.61151006818301
C        10.23691563515940   -0.51921321689226    3.25925689984144
H        11.02535022635587   -1.16726816678112    2.93310346152134
C         9.47556150167493   -0.62478889484572    4.43679917691574
C        10.17926105172466    1.18008990865959    1.31577659203359
H        10.73812526581229    0.43672568289035    0.75320604943022
H        10.82200194194867    2.04817301443437    1.46988758961300
H         9.31387445498962    1.49283103478540    0.73436912292447
C         9.57996184539772   -1.64803651472779    5.51153583734493
H        10.57901330114146   -1.64607403185220    5.94720891231277
H         9.38929809400161   -2.64038183071228    5.10522371675609
H         8.84918542697990   -1.43520177514878    6.28685854102516
C         6.14187174203982    0.57624421731703    2.45341276026582
C         4.67971711494267    2.64694143930436    0.33196998988057

