69
CSD_code = ESAZUT | q = 0 | S = 0 | Stoichiometry = C22H38N3O2ReS3 | MND = 5
Re        6.52053301734407   18.74558242849091    1.22616909002588
S         5.10165948949314   17.18194473492078    0.30196515565130
S         7.72697055385143   18.76768862582063   -0.72174866122477
S         7.44551079139550   17.20681984214258    2.66927420500881
N         8.32422964875028   20.07350676882288    1.99706920986189
C         4.38527575893426   16.30662507272578    1.73845175931079
H         5.18648401165501   15.74509741588890    2.21995934758212
H         4.01708960908530   17.07445513019557    2.42002514465322
C         8.78995432394486   20.84050929898529    0.83454302549965
H         7.98904531659734   21.54168385723445    0.58281665166735
H         9.69265331381339   21.41453533654688    1.09522388605476
C         3.26669041483726   15.38283708610067    1.28346834240806
H         3.65833607056135   14.69397404450829    0.53264811610429
H         2.48258002109369   15.97713032485713    0.81176523373426
C         9.36580183725641   19.20044082105651    2.54758565329247
H         9.85417421439732   18.67402860473175    1.72245615375228
H        10.12475762234241   19.79606179041618    3.07802922977012
C         9.06859474010648   19.98226120261891   -0.38881219392097
H         9.99191678499766   19.40740873592934   -0.29693021580716
H         9.14801554318077   20.61651588406442   -1.27145025483419
C         8.77794510812396   18.15796387076421    3.48887096210767
H         8.36369496913160   18.60025439586288    4.39471611646443
H         9.53931465088440   17.43101577880322    3.77289843080509
O        -0.65036370330160    6.66817250468721    5.54832438297519
N        -1.92491810529079    9.04421792690795    5.21589008755545
C        -2.51233633065512    8.06205590454958    6.00989141155911
C        -3.76503895186535    8.22484195347672    6.59487685048104
H        -4.27867215321765    9.16789614222149    6.49418730464814
C         2.68725764397851   14.59303177248073    2.45497364078954
H         2.31376624827657   15.28694647488467    3.21078073369892
H         3.48017502009579   13.99872323290788    2.91461624224788
C        -4.36776959138891    7.20967059554806    7.31914704673323
H        -5.34061729329055    7.37202787935469    7.75863965320612
C        -1.86522323322660    6.81390421995751    6.17205916671836
C         7.84626798921339   21.00626937193917    3.01932071155261
H         8.65349235726415   21.66894804448784    3.35233696971828
H         7.45529316820915   20.45806064854750    3.87318346081487
H         7.03051542393132   21.59979617017676    2.60938107181110
C        -0.01050393194977    5.41969507572799    5.60373805806380
H         0.89506251468995    5.52868359449143    5.00780514571782
H        -0.63150147042594    4.62683117207069    5.17377346958798
H         0.26514966560674    5.14841656102439    6.62890906640171
C        -0.11796119331232   11.91486742777369    2.70653706859764
H        -0.88237262126765   12.52879632256595    2.22212526103526
H         0.26508717713189   11.20299256491836    1.95299981795727
C        -2.74086792087432   10.12108552999799    4.70619605601451
H        -2.87549068976428   10.92200013226525    5.45168045007423
H        -3.71761323091205    9.72973430864180    4.41610649026220
C         1.01190356499868   12.83513279657323    3.16638801947754
H         0.62785809682253   13.48884750749337    3.95070947999936
H         1.82696999144242   12.24737256620354    3.59067126111244
C         1.55531640722348   13.67035559770349    2.01002052382692
H         0.74910079277659   14.26972409152393    1.58213825736120
H         1.92193728058246   13.00346958588331    1.22626007570446
C        -0.60746052560523    9.53340692253651    5.56468770685722
H        -0.00231795019797    8.71381037933290    5.94481470531875
H        -0.68431054841549   10.31434647875312    6.33972533952457
C        -3.71853737772071    6.00544117147491    7.48560339285794
H        -4.17271650152567    5.20695664340861    8.05233184958141
C        -2.46873529908403    5.81332744191905    6.91319905628924
H        -1.98046607162691    4.86014574884602    7.04206536574848
N        -0.74915660572786   11.22625428938284    3.81914914585504
C         0.05831180998163   10.13414723241969    4.33207723911743
H         1.04097978992853   10.51680948259137    4.61009360936863
H         0.18865002104328    9.34180496925812    3.57319989055434
C        -2.06111702177915   10.71372985846031    3.47209386880141
H        -1.99729176237115    9.93255583611447    2.69285643570671
H        -2.67012918845203   11.53668465739388    3.08960593888334
O         5.42546649827368   19.92707015963268    1.68703483186646

