53
CSD_code = ESEBOT | q = 1 | S = 0 | Stoichiometry = C25H20ClN6Ru(1+) | MND = 6
Ru        9.00003954235985    2.27794627165572    2.02141612938973
Cl        9.20706193871587   -0.06386680607184    1.87882217198668
N        11.05916125735810    4.58054944104403    2.94980802939597
H        11.69008191807037    5.23728756902600    3.39212564817599
N        11.02506894639277    2.54958075368772    1.73518069494544
N         8.81310791938032    4.31608957076911    2.25878607360975
N         8.41739021584097    2.32571181185614    0.10254625742635
N         7.18206555167012    1.88356679170484    2.28552019300097
N         9.03594528471911    2.01762887898916    4.03869976372412
C        11.71856287477243    3.54909221228282    2.29527484975137
C        11.71825863840202    1.59940675413883    1.09011520691450
H        11.12883449342635    0.81115632028809    0.63880332027235
C        13.09554367418200    1.57837936798107    1.01623507706095
H        13.59226576689676    0.77931077240839    0.49248768395760
C        13.81668428214175    2.59294022129218    1.63322361620743
H        14.89436631223306    2.60678184183554    1.60933086839963
C        13.11614836651211    3.59535343299703    2.27169987263131
H        13.63282416573172    4.41338965631181    2.74970481616760
C         9.78154414390320    5.07032279216007    2.79978201360213
C         9.53914824788471    6.38016430279337    3.23862095961008
H        10.33930857340219    6.94435512103169    3.69191600994719
C         8.28978578664432    6.93549202073151    3.07839008473096
H         8.08685221888864    7.94037144623965    3.41108737018912
C         7.30533425941633    6.17170464408153    2.45855506979892
H         6.31928494806584    6.56730653783578    2.28315609096765
C         7.61197519492461    4.88564875560307    2.07542200493706
H         6.86019860587944    4.27635955108433    1.58935737670921
C         7.11818495171957    1.95876610732956   -0.04562845525711
C         9.13692858144607    2.56352245762898   -0.99142279192393
H        10.16813015236896    2.85734325111873   -0.83307406805256
C         8.62886425197604    2.45149548171648   -2.27208285974616
H         9.26019270095594    2.65067498555197   -3.12234954475207
C         7.30262989260844    2.07237562250498   -2.43578528872790
H         6.87512558462328    1.96683352317650   -3.41996810803676
C         6.54203361926375    1.82900672331125   -1.30810149588812
H         5.51095496254871    1.53001710759697   -1.40024551146014
C         6.40496440388059    1.70069312255105    1.20470025569963
C         5.08629303109703    1.27866797603815    1.35179108716500
H         4.45458185467890    1.12689359654711    0.49274598514240
C         4.60114392862481    1.03654637417644    2.62849174503839
H         3.58185952157570    0.71334206072926    2.76552323210538
C         5.43838055200293    1.17412568204615    3.72654055880762
H         5.07776546132609    0.94318074227559    4.71471636077272
C         6.75100885813495    1.59003423619268    3.52178157925205
C         7.81510527804162    1.67516244857306    4.52240604837825
C         7.63160583461188    1.36046092673221    5.86762406722011
H         6.65145674879370    1.09663560486048    6.22889396672215
C         8.71321440788577    1.36948829927076    6.72782599194675
H         8.58901860333288    1.12040842836914    7.76960503754062
C         9.96337925418559    1.68606903194616    6.21466076080491
H        10.84098580768151    1.68107067743049    6.83999391465309
C        10.07131565274359    2.00206270065462    4.87263631250955
H        11.03803297607661    2.24049279791391    4.44675396657485

