75
CSD_code = ESEJER | q = 0 | S = 0 | Stoichiometry = C38H32O2OsP2 | MND = 6
Os        6.03929770957526   16.03132618223884   17.09952455322660
P         6.35434055024956   17.33141999979445   15.16759240573816
P         5.54588662068849   14.73226580410789   18.99211936759440
O         7.55488939014908   18.06247121205690   18.77947565815744
O         8.60026419630401   14.47647327792796   16.57857021019535
C         6.95501650718264   17.30957562155284   18.14348778956797
C         7.61259070507588   15.04303281911080   16.76635635215962
H         5.15608520529820   14.99328696555220   16.24166220644510
H         4.63820749167846   16.80022894442919   17.29792204828810
C         6.47856109840793   19.14643690517224   15.36144601891309
C         5.76610057348810   19.77251202679807   16.37859642491910
H         5.16212837854102   19.17187552720086   17.04619380493940
C         5.82867904951788   21.14585721557681   16.53169805613842
H         5.27522452345517   21.62413710442478   17.32663580819143
C         6.60238833736303   21.90469817138911   15.66944495860815
H         6.65770010685271   22.97640625610282   15.79234897018835
C         7.30443991158950   21.28760968976254   14.64640093238783
H         7.90353806358499   21.87833200387328   13.96855834585754
C         7.24287942868028   19.91541513573006   14.48714839452821
H         7.78781511827287   19.43958618944831   13.68369185613403
C         7.93421852971138   17.00532534332960   14.30281354571534
C         9.09063945992635   17.25515982872443   15.04143933731903
H         8.99993337072513   17.64890697664557   16.04797116687802
C        10.33503158197627   17.00916316876648   14.49781808826178
H        11.22580325512182   17.20625141765400   15.07624891130808
C        10.43809497840576   16.50243973517392   13.21096109428020
H        11.41048011628786   16.30109343794921   12.78626499339680
C         9.29425422031870   16.25443510758854   12.47290741303818
H         9.37287396849917   15.86210750282503   11.46922820728619
C         8.04297661650657   16.50539791837843   13.01196882429392
H         7.15553317104112   16.31573127051039   12.42518843613519
C         5.12318442974525   17.19382595806808   13.82883306794502
C         4.43030749053617   18.28750443743661   13.32385147278527
H         4.61069043116813   19.27686622557293   13.71932664561666
C         3.50068968839495   18.10818316636409   12.31330834507175
H         2.96238560505599   18.96121539878304   11.92610776414256
C         3.25780248386110   16.84537521638293   11.80143680672384
H         2.53189843799746   16.71187634682473   11.01276080301144
C         3.94012563132797   15.75034857965773   12.30887521896528
H         3.74632848058846   14.76237928793296   11.91684865538839
C         4.86300489051128   15.92168955363047   13.32221860462018
H         5.38417019873422   15.07121759530089   13.74316422638261
C         3.79918793081120   14.63870162771049   19.50631848832164
C         3.14901541645938   15.83775155843342   19.79397989458368
H         3.69647072180878   16.76786338923706   19.70481979813112
C         1.82042187443190   15.83661497563820   20.17113711542894
H         1.32274584096001   16.76839018358191   20.39809049406481
C         1.12418364262415   14.64008977452903   20.24968634979653
H         0.08358601540152   14.63866491862889   20.53942369291089
C         1.76055353294763   13.44925705790155   19.94570443930495
H         1.21592128897834   12.51744299817159   19.99490466794051
C         3.09448086695248   13.44317588280121   19.57371532003211
H         3.58232607859669   12.50960145806100   19.33219943189508
C         6.03006433844326   12.96830295752132   19.01850327255934
C         6.19040600904986   12.27029003534192   17.82772190697389
H         6.03356050130891   12.78448878601340   16.88855799945032
C         6.54291324804677   10.93215442628526   17.84632577120368
H         6.67010443008625   10.39687443979110   16.91667156284223
C         6.73457925802201   10.28235426692915   19.05375529580846
H         7.01476233101130    9.23929157940313   19.06894475707571
C         6.56454101641988   10.97096457633445   20.24478371862625
H         6.70772542949812   10.46400382272773   21.18806929438915
C         6.21246585062171   12.30732672883063   20.23155288708541
H         6.07659797721073   12.84159503825662   21.16188324779622
C         6.39677372405304   15.27977687136325   20.51886084988147
C         7.78982003078547   15.28226580303154   20.46048361778409
H         8.28091741015719   14.95643422622994   19.55011918525083
C         8.53604248249252   15.69106825670205   21.54720423709870
H         9.61490342276634   15.69088340179764   21.49256648582836
C         7.89708534253977   16.10680174356335   22.70550836650522
H         8.47804580786405   16.43448907542545   23.55495287623657
C         6.51487004899894   16.10086563309554   22.77146762214843
H         6.01546570956483   16.41982755255339   23.67501895423110
C         5.76183283704188   15.68720716846528   21.68476993189525
H         4.68306958166571   15.67783925996424   21.74958267620755

