69
CSD_code = ESEKET | q = 0 | S = 0 | Stoichiometry = C34H28N2O4Ru | MND = 6
Ru        0.08273901228809    9.00804662876675    1.00526107223188
O         0.24221589966011   11.97583722131538    1.35688256163335
O         2.31302601395031    8.55671234779618    2.95404669423425
O        -0.10130171441534    6.94861475304924    0.63952272819289
O        -1.37251176653485    8.74370412921276    2.54571803866324
N         2.21317367063807    9.74556096131693   -1.05519840518751
H         2.31330375867526   10.58746551557189   -0.50112850201112
N        -1.46473517727929    9.05839140695212   -0.37338699812735
C         0.16784872756723   10.83783719869857    1.20964390402196
C         1.45531113114866    8.75107345733936    2.22422088364452
C         0.56632914498517    6.58248362522475   -0.36856213554851
C         1.43637357023090    7.48371047324314   -1.01690158716915
H         2.11222527328512    7.13818983497644   -1.78428975178019
C         1.42530361039198    8.78008419203453   -0.53396869109856
C         0.41315340834208    5.18736730761606   -0.82820312800790
C         0.68858733939147    4.79931060910991   -2.13829986018263
H         1.01739717407968    5.52959902106903   -2.86202983294063
C         0.51744342148785    3.48511756874694   -2.52475556283277
H         0.73207816468860    3.19605888172745   -3.54399078799638
C         0.07173791345561    2.52314009575466   -1.62375133561558
C        -0.21533837402415    2.91620119476926   -0.32142120862938
H        -0.56856035410123    2.18383557173284    0.39049584700068
C        -0.05385319917066    4.22924603441505    0.07099978284635
H        -0.27797850966939    4.53491527197459    1.08239222401178
C        -0.11969666541933    1.10402984068190   -2.06073958724849
H        -0.09288884020365    0.42745402056137   -1.21015762503618
H         0.64975317083350    0.81093404554941   -2.77176272472564
H        -1.08763542836874    0.99368996709806   -2.55119677777885
C         2.96631477625718    9.75742724042620   -2.23664187844419
C         4.12097250719949   10.53861964299424   -2.27342961974124
H         4.42078836085245   11.08182689010721   -1.38836786742700
C         4.87924522064493   10.61478614610710   -3.42535172000267
H         5.77490011648533   11.21783178551096   -3.43701497250908
C         4.49245981437779    9.92299218313115   -4.56144852077987
H         5.08557714615982    9.98126420522978   -5.46125796503013
C         3.33124949275984    9.16937800622233   -4.53836073994891
H         3.00883554196843    8.64697481501711   -5.42692278201931
C         2.56699836782760    9.08592906586919   -3.38936361950705
H         1.64174955377928    8.53442094273106   -3.39554153941825
C        -2.55747187770846    8.35811870763070    2.35838294288512
C        -3.21340238457597    8.27472669073962    1.12176544283514
H        -4.24868885737699    7.97275573264799    1.12384499204801
C        -2.67436367208088    8.61396362455093   -0.10991234504423
H        -3.35893266288118    8.54544742018471   -0.95995402233294
C        -3.33106498765788    8.02736737794042    3.58568275920368
C        -3.04176767663055    8.71705166734570    4.76160071396407
H        -2.27164587297832    9.47400053094468    4.74264837775929
C        -3.73079099617459    8.44261663367494    5.92493840564949
H        -3.50201503877643    8.99266518361223    6.82681667401300
C        -4.71498035153328    7.46020911505611    5.95467241253424
C        -4.98448920618116    6.75793030349343    4.78654967671510
H        -5.73406138281432    5.97884234501413    4.79572351921968
C        -4.30635449955659    7.03567226928827    3.61458343348968
H        -4.51890061876035    6.45756314838164    2.72762540311737
C        -5.47182615813740    7.17958356548403    7.21646236856381
H        -5.93909558542540    6.19839385519011    7.18180280298558
H        -6.25599587683017    7.92514937348239    7.35317757649840
H        -4.81262897604661    7.22752054143201    8.08078154155734
C        -1.16739179038964    9.30690656893388   -1.72042320770109
C        -0.59192630108210   10.52258662166108   -2.09359742590708
H        -0.39233884968721   11.26354586619922   -1.33104517088649
C        -0.30522090594269   10.78295257965546   -3.41911271013946
H         0.13667359160105   11.72896004752574   -3.69489973197078
C        -0.58435931674713    9.83917214511937   -4.39494526654719
H        -0.35437529537267   10.04437598229260   -5.42939643551124
C        -1.14995395804581    8.62804397620978   -4.03296226872557
H        -1.36117034706603    7.88197704868484   -4.78567344082620
C        -1.44644856554572    8.36166635561937   -2.70924094363450
H        -1.86690285397645    7.40547262245640   -2.42813408362751

