44
CSD_code = ESERUQ | q = 0 | S = 0 | Stoichiometry = C19H14AgF3N2O4S | MND = 4
Ag        1.93986284913565    8.06313481202614    3.98150982701784
N         3.26075247285036    6.26479647298301    3.36129390474433
N         0.74764176539680    6.00486397476021    4.26189241365236
C         4.56019685115743    6.60337112185456    3.22641277313622
C         4.87718007111509    7.79345636902698    2.54058314550758
H         4.05183005423669    8.37201155120580    2.13230329230574
C         6.17735882372726    8.19918331892763    2.43024816825546
H         6.42129968760743    9.12248405004279    1.92656580686775
C         7.21349836005335    7.42394072940275    2.97865246485161
H         8.23353888045948    7.76587328782589    2.88552283537804
C         6.93778063928041    6.25391681252155    3.63036431928431
H         7.73123271020854    5.66013761027405    4.06060778396756
C         5.60707768192187    5.81371309819244    3.77290195383007
C         5.24286262333959    4.64050598890611    4.46323588127254
H         6.01245550841655    4.02025522323263    4.90004152233635
C         3.92009848110112    4.31699193731235    4.59091947905556
H         3.61695114145499    3.44345261259992    5.14636838194031
C         2.94570979847429    5.16973022620558    4.03383488581008
C         1.50516544379028    4.92528056951302    4.21669502136809
C         0.96178586844932    3.62814509011043    4.35234075919691
H         1.60384428211858    2.76550251524891    4.27123929061616
C        -0.38234451570698    3.48308281174102    4.55931898402058
H        -0.82641893453702    2.50327341967930    4.66350275388624
C        -1.20387591352074    4.62672408557594    4.63988742757265
C        -2.59328239816914    4.58214723720267    4.87149327740576
H        -3.07031938236786    3.62139487622128    4.99918948762649
C        -3.31892739798334    5.73975101462815    4.93538284091353
H        -4.38263807375662    5.70203382816518    5.11664570749872
C        -2.69459612301103    6.98962616543287    4.77077912323367
H        -3.29187987064727    7.88654177512282    4.83052028596605
C        -1.34973481620488    7.06909999412702    4.54197382504747
H        -0.82476985630697    8.01403940297662    4.41929857674311
C        -0.57668310693034    5.89225157954291    4.47388989055552
S         3.03115772600133    9.22222887697109    5.90344697410159
O         3.80395178942582    8.01132383732046    5.77090334199299
O         3.22468320351245   10.17048280610300    4.81784450342347
O         1.64177395903670    9.01510166945523    6.23694945773604
C         3.76396976554478   10.09539772092275    7.38418224844216
F         3.14020507219675   11.25252810055007    7.62710817390113
F         5.05684662650757   10.37255858111218    7.18377128334184
F         3.67921950129171    9.35129432414328    8.49018085750577
O         1.25941375412627   10.16073648511974    2.94682166877185
H         1.61619676555166   10.51803801330463    2.13043754500824
H         1.83662823166408   10.49769602240836    3.65713785491143

