63
CSD_code = ESESEC | q = 1 | S = 0 | Stoichiometry = C25H32IrN2O2S(1+) | MND = 8
C         8.21871572772214    7.66740127830662    5.73964322477521
C         9.18864597385562    8.59806429253271    5.35126138166253
C         9.91200421985481    8.44180538835167    4.17083199465965
H        10.64727372541438    9.18877049698332    3.91265408426630
C         9.67831925270259    7.34261132772559    3.36926474774930
H        10.22814303005508    7.21212830260872    2.45043685087744
C         8.73639574891859    6.40120152176349    3.75492637479339
H         8.55770906885817    5.53414543734293    3.13651547088773
C         8.01389436087567    6.56137059205803    4.93057197409004
H         7.28712320509758    5.80959404604999    5.20027580878387
C         9.46377692867812    9.72183329228174    6.26150141366717
C         8.82940940230949   10.46445873180659    8.44406083216192
C         9.38621476362001   11.77201743641276    8.34516744645548
H         9.74929646760117   12.12391314272114    7.39469733516494
C         9.46650917495431   12.57575090405239    9.43929949137424
H         9.87472277200635   13.57252566448643    9.36951473638204
C         8.52156856787192   10.94649509744118   10.79963974103325
H         8.21651673436751   10.65797254090863   11.79416301239166
C         8.39425853641717   10.09411318853989    9.74781957022904
H         7.98731766140578    9.11089610920786    9.91784263634536
C         9.19573723678012   13.05874415127602   11.79829535016083
H         8.49935196642917   12.77748011991017   12.58545912660900
H         9.00160289798449   14.09004982482559   11.50734756971736
H        10.21246587517465   12.99507474534573   12.19230589249761
C         5.38436530144181    9.10984152662104    6.87409883009404
C         5.16429726977358    7.69867245840600    6.68121440523020
C         5.31718839813930    7.08831976242825    7.95501453971983
C         5.36836236759148    8.13912623735002    8.96835103804951
C         5.38228021647561    9.36256283531179    8.32013186059343
C         5.13249145190042   10.16167452465333    5.83973230874304
H         5.42489675809540    9.81185408424248    4.85348734595945
H         5.68185655580557   11.07318801445887    6.06104299293493
H         4.06888223765850   10.40290854368079    5.81684724952323
C         4.71072488734007    7.05868112725161    5.41021513074706
H         3.66322466634973    7.31266285730995    5.24496827124019
H         4.79027241324072    5.97693557137766    5.45981118920436
H         5.28194086873873    7.41546832285426    4.55704430431744
C         5.07900348978986    5.65250220428171    8.28982128991978
H         5.32096235178584    5.00122376674451    7.45297837699167
H         4.02527472110316    5.50676398563821    8.53290840847020
H         5.66350922782573    5.35565056421897    9.15849883337013
C         5.33256498525138    7.86652963747218   10.43280855181635
H         4.44337560105482    7.28917689804867   10.68330185152477
H         5.31405716209030    8.79010647626456   11.00520546237550
H         6.20357133050208    7.28476755691394   10.73701151530276
C         5.30061019328514   10.72796395963672    8.91475672222439
H         5.53423176360507   10.71642442501848    9.97605162764719
H         4.28722412226711   11.11239176082711    8.79112365730242
H         5.97808897428579   11.41686846263475    8.41360392275938
C         8.79925010131925    4.94632623011098    8.06536654474517
H         9.43327565008034    4.40429511977372    8.75741058521081
H         9.20686128450360    4.93324725496249    7.06198798265998
H         7.80303330909358    4.51949153305870    8.07195028496976
C        10.47925579117459    7.04680972919378    8.52310344545919
H        10.64483519997531    8.04984674655350    8.90053758394419
H        10.78759376025607    6.98598112449888    7.48606079822860
H        11.01253615010196    6.33017697302999    9.13692550842171
Ir        7.21959125961782    8.09931114448791    7.45459430251017
N         8.70103057938903    9.60225476683254    7.42937462023344
N         9.04146344497726   12.18350292618623   10.65957227580915
O        10.30389249339390   10.57606179219311    6.07168109146225
O         8.32256317434444    6.67054807888214   10.01365658392448
S         8.69498718738420    6.68276338363594    8.60155263962847

