95
CSD_code = ESEVUU | q = 0 | S = 0 | Stoichiometry = C36H52Br2N4Ni | MND = 4
Br        9.76532108653137    6.25383795347865    4.85216918491890
Br       10.88388295667265    4.11487041706779    0.95157313106428
Ni       10.41593482510617    5.03347892985616    3.00731416109810
N        11.07517899876994    2.88512827680548    4.88393238158010
N         9.21174452646381    2.47503691070187    3.89506559395943
N         9.77055574562629    7.40237779376827    1.47197173631355
N        11.80280927483302    7.38219713131844    2.18620417061657
C        10.23290390149234    3.35671525452823    3.93677078609748
C        10.58140469184916    1.72931437421114    5.42750889653504
H        11.09878386350447    1.19083931242096    6.19382682327541
C         9.40732544046124    1.47390362705880    4.80860887972460
H         8.70238018500608    0.68088055275015    4.94689199821863
C        12.33925578236009    3.46963586401497    5.19097405909578
C        13.39192137399908    3.28028991544593    4.28417701314709
C        14.60299880672714    3.90301168576526    4.55338133405774
H        15.42957625767701    3.77886046708988    3.87273021774657
C        14.76673290834993    4.67276904063072    5.68926155088812
H        15.71413433260653    5.15715113867734    5.87819407154631
C        13.73674783449550    4.79630875747231    6.60019453977278
H        13.89192442650368    5.36836303157968    7.50032668373413
C        12.50538466658919    4.19371761727217    6.37581360433650
C        13.24918723729168    2.33856025095816    3.10970593507134
H        12.21233711929343    2.34454714016990    2.76549477493579
C        13.58635759658330    0.91888201641221    3.57933781957509
H        13.48862551511711    0.22211471227987    2.74999069505515
H        12.91982771480567    0.59837429810594    4.37797071321735
H        14.60909900471062    0.87696599291034    3.94969726324172
C        14.11604180793831    2.71541596859483    1.91100723662134
H        13.97808304501872    3.76145208690652    1.65383464249535
H        13.81540524221946    2.12170796324377    1.05154770981246
H        15.17021712583049    2.52923380955516    2.10273494971310
C        11.42607734825499    4.25610277375109    7.43087061689575
H        10.46227140704749    4.01932228810832    6.97191227446785
C        11.29802279834804    5.63367765197691    8.08015955926249
H        12.16016856945238    5.86432431471071    8.70039262702198
H        10.41380783286953    5.65216898624000    8.71209283715051
H        11.18501063583756    6.40247814308579    7.32278288458075
C        11.73157852596237    3.20977507773291    8.50950841901443
H        11.81276993305806    2.21010678534533    8.08855169297563
H        10.94187508383643    3.20519477131152    9.25714258686309
H        12.67317040773852    3.44388659211120    9.00208188628909
C         8.13064477648096    2.54839897713130    2.96719091564077
C         7.03567812271374    3.36568005731429    3.26374835793916
C         6.03911364152393    3.49106184165071    2.30475457199933
H         5.18665284680433    4.12164570638005    2.50087509880112
C         6.12356682492199    2.81292219320470    1.10445546659531
H         5.34669892751288    2.93287840328912    0.36337442810360
C         7.18076841162323    1.95834332856815    0.85918314178287
H         7.21332539054005    1.40850443759919   -0.06688633422990
C         8.20366283481474    1.80359765839839    1.78447663651707
C         6.88456205468070    3.99916648422127    4.62712304539310
H         7.87076405123514    4.12393422133499    5.08036483924270
C         6.22673669518306    5.37642263566447    4.58704408792341
H         6.71630788434600    6.00937218257733    3.85316231874209
H         6.32818315025725    5.85271560515648    5.55883596985024
H         5.16821844876565    5.30884009382805    4.34741265146940
C         6.07177976883516    3.04966549450094    5.51412902134230
H         5.08348827685914    2.88727698999134    5.08802360257610
H         5.95674390205975    3.47758807171057    6.50720298308464
H         6.56490620067196    2.08413578891126    5.60977538015773
C         9.30479014955211    0.79472285593599    1.55049930463729
H        10.17180775821027    1.06247877717645    2.16150296965125
C         9.77245863596691    0.72943370767742    0.09721034690738
H         9.01492624924050    0.28618908675843   -0.54360883246373
H        10.66621595073890    0.11296013398824    0.03407469096147
H        10.01577585381503    1.72194996005612   -0.26904508918054
C         8.80618442799393   -0.58758109977952    1.98964951932913
H         8.50547998400552   -0.59224746432972    3.03474074725217
H         9.59260667555831   -1.32699587650916    1.85551306212239
H         7.94777031431542   -0.88249257581848    1.38964744290395
C        10.65715482735268    6.68305934779319    2.17457186090243
C        10.36025634153565    8.56077470385619    1.03758077481821
H         9.83985442400095    9.29033217564503    0.45349071262847
C        11.63559339756498    8.54961888595359    1.48811762096477
H        12.41898956985987    9.26787540522322    1.36694907697644
C         8.40531784295943    6.97547601892957    1.23066356087267
H         8.28868333333123    6.02076545606022    1.77408237036744
C         7.42690212402596    7.99848058679641    1.79847281498055
H         7.64232238976722    8.18371200638892    2.84918813152166
H         6.41063252556707    7.62363763351394    1.71128797582637
H         7.49479367923280    8.93954535651846    1.25708215975246
C         8.18556423176635    6.71892039006811   -0.25642279671617
H         8.29828834001559    7.63772118549018   -0.82793543570833
H         7.18475850423388    6.32760376732179   -0.41645034730705
H         8.90382304248787    5.98696178436531   -0.61944531519159
C        13.00113935948323    6.93311887705231    2.86932238538520
H        12.77058791448127    5.91970656323729    3.24712105360887
C        13.30384120938766    7.83735683412027    4.05952034530387
H        13.54663594757257    8.84452791298673    3.72754824975856
H        14.14564615109445    7.43677536234141    4.61741653898861
H        12.44259770324895    7.88397082305616    4.72252315337628
C        14.16943997838825    6.84188604338313    1.89449280750416
H        13.89273889567552    6.24232654365651    1.02932885581443
H        15.01841671127033    6.37489701569103    2.38629068678403
H        14.46776750978545    7.83070196880895    1.55316447195049

