95
CSD_code = ESEVOO | q = 0 | S = 0 | Stoichiometry = C36H52Cl2N4Ni | MND = 4
Ni        3.28767905958231    4.80796920550242   18.27373944461516
Cl        2.90742867057808    3.84904914813174   20.11884664648726
Cl        3.67778377449358    5.95570553928693   16.54097719998198
N         4.45342051883007    2.26704919960325   17.39585847696967
N         2.57218057022523    2.65085428129719   16.43859675170818
N         2.02016608810099    7.19618708073129   19.24086226115168
N         4.05824153020677    7.04281150545027   19.91669051148219
C         3.44635662649521    3.16008830548208   17.32941854141974
C         4.21263678902880    1.21158473610016   16.55766742137562
H         4.89170940436554    0.38940317444761   16.46320276076210
C         3.02712712396330    1.45464158986938   15.95244725927314
H         2.48020380600035    0.88503093294055   15.22967274076129
C         5.57590687186726    2.42138003199891   18.25798491978632
C         6.59172457588782    3.31120527852988   17.88803846955408
C         7.63984202925588    3.50351409203655   18.77775605173786
H         8.43708154010536    4.18449660620476   18.52652018858315
C         7.67952462288199    2.82825997593853   19.98313442191882
H         8.49907153055117    2.99795579883092   20.66679968713568
C         6.69076206834278    1.92098758282528   20.30707087525331
H         6.75108605421829    1.38117686570517   21.23864214157139
C         5.61871919007455    1.69836346609131   19.45281392378874
C         6.59297678453453    3.95551213609791   16.52006181271980
H         5.56061598600143    4.11547612127585   16.19826466778508
C         7.27811549821149    5.31933081196309   16.48539758613964
H         6.86809205129650    5.96600408424206   17.25559852256537
H         7.09125599724590    5.78790935520801   15.52232038285342
H         8.35433129689705    5.23579570148860   16.62017064682838
C         7.26729197923144    2.99885307065615   15.53040977457219
H         8.29597435194679    2.80802683074766   15.83163410715081
H         7.27255974007702    3.43668154912911   14.53484742752879
H         6.74207223584073    2.04687457089992   15.48433545211091
C         4.58108214446682    0.65330343787079   19.78983636485657
H         3.72705877867335    0.76493945002778   19.11588990791471
C         4.04985679200170    0.79512264737541   21.21548698920373
H         4.82683603389778    0.61293271502851   21.95290985366372
H         3.25129551726051    0.07472007313073   21.37976927223262
H         3.64932958980257    1.79536802198847   21.35698675792605
C         5.18723320684890   -0.73852008191408   19.57760164868122
H         5.55267542263007   -0.85675931430515   18.55916116943018
H         4.43931192537880   -1.50548071240298   19.76649350570435
H         6.02218520734605   -0.89608755810847   20.25667536313796
C         1.35295457802402    3.29645109404843   16.08679357814569
C         0.27790847085100    3.23014614157360   16.98225315227753
C        -0.88089016002064    3.92120061635132   16.65521521841548
H        -1.72696932379323    3.89305221572721   17.32284410364035
C        -0.96873584488550    4.64218047650336   15.47931579494589
H        -1.87661709699196    5.17989751833360   15.24579546433211
C         0.08733029468858    4.65717789764519   14.59035771685056
H        -0.00782603550262    5.20026025835924   13.66369010079169
C         1.26917198165010    3.98524776957469   14.87407132323600
C         0.34468784743922    2.34911916424018   18.20961508465349
H         1.37919893780493    2.29718126743663   18.55873695067784
C        -0.48415447129936    2.86800048982899   19.38176619137054
H        -0.22054728031154    3.89879327518643   19.59978397514049
H        -0.26324650467113    2.27409249687567   20.26517644322189
H        -1.55202300859373    2.80206666957301   19.18570933990128
C        -0.10864869202492    0.93709604943032   17.82218202971335
H        -1.13541307744604    0.95602071166113   17.46066322826113
H        -0.05724711934528    0.27969009043619   18.68707465497810
H         0.52257519107780    0.52360823994107   17.03795787671697
C         2.38779830689382    3.94997066690443   13.85960409132493
H         3.29360750658140    3.56837010105729   14.33884073578641
C         2.72175084129938    5.33435664314717   13.30582154082400
H         1.89167842086066    5.75275587948877   12.74314098739822
H         3.57966152371080    5.26250648357533   12.64080472523066
H         2.97432217436744    6.00267416318448   14.12430855382202
C         1.99909371500005    2.99777607092667   12.72305164732782
H         1.77409807247277    2.00278516253495   13.10259185840627
H         2.81375127007300    2.91729750610739   12.00680013946966
H         1.11814385760707    3.36831841127241   12.20358797422736
C         3.11695533379361    6.42472979845482   19.18729231452084
C         2.27257323357599    8.30441628934749   20.00368347909072
H         1.54176416910760    9.06519919198720   20.18253558584836
C         3.55192939118822    8.20453227214812   20.43432597995522
H         4.12406754173920    8.86144894684144   21.05560276165016
C         0.79000483820507    6.87814592360564   18.54082543952056
H         0.91680584845958    5.84411233727528   18.17507639053743
C        -0.40105493059402    6.93442317473676   19.49053039159646
H        -0.20645752785848    6.33407838037224   20.37689089791292
H        -1.28286097476412    6.54273118176744   18.99093164482079
H        -0.60653173170399    7.95739613581434   19.79829398410848
C         0.61826902544163    7.79877831153223   17.33628402646269
H         0.52235306948297    8.83573780221584   17.65191725199242
H        -0.27075904973000    7.51349219695439   16.78090016260745
H         1.48031061411013    7.70452427881304   16.67958623920314
C         5.38654649861604    6.49904844296917   20.12649123143078
H         5.46686626630652    5.64086290270021   19.43656291978142
C         5.52293541383813    5.98435121140707   21.55616662931220
H         5.41473642328555    6.79663823860556   22.27212856352902
H         6.49758368157778    5.52315435839243   21.68881913606787
H         4.75773604369972    5.23553030334350   21.74838821027391
C         6.45170527356580    7.53173156374667   19.77528618898044
H         6.27307273373292    7.93530687129495   18.78070173882217
H         7.43231195742168    7.06380435747599   19.79102360690193
H         6.45111949733401    8.35101468988141   20.49100883568244

