77
CSD_code = ESEWAB | q = 0 | S = 0 | Stoichiometry = C30H40Br2N4Ni | MND = 4
Br        5.74019191251039    4.26376501461557   15.06784578417829
Ni        6.36542096832627    5.16760046961553   17.11736283953526
N         3.66261232855466    6.35522540286713   17.16034395264431
N         8.93838777696251    3.98772921207878   16.68348482345183
C         5.00035471401896    6.53376829352942   17.11712351612214
C         3.01639115058859    7.56155738703262   17.14506865240620
H         1.94904953280597    7.63650595577695   17.18939091774797
C         3.01769088170160    5.08668715884021   17.17005083255156
C         3.03212833896094    4.32186373924661   18.33635725834880
C         2.47585243531679    3.05046404936024   18.29705634523699
H         2.49804161560967    2.44423237062708   19.19201105480780
C         1.89754534189922    2.54896551640699   17.14237653394767
C         1.84549162460771    3.35845163708846   16.01546862367878
H         1.38052838335522    2.98270368342714   15.11602705584639
C         2.39414462690150    4.63002237672863   16.00644092732518
C         3.61704214756414    4.86084923532535   19.60532280042042
H         3.37788847545394    4.21200132981663   20.44355077979367
H         3.23575784128590    5.86007055017015   19.81446694103755
H         4.70258934169486    4.93289221339895   19.53586930125914
C         1.33097466315951    1.16264718830546   17.09699034341172
H         1.90866365910094    0.54659723953683   16.40833653224033
H         0.30239995717903    1.18236525115367   16.74059575721789
H         1.35141141429946    0.69826242587428   18.07991262521999
C         2.34351405824248    5.47418733160402   14.77129370629297
H         1.75587571521247    4.98197044585838   14.00232312084393
H         3.34947456541246    5.62404107282438   14.38256134748421
H         1.90688821877884    6.45099310559541   14.97281645492083
C         7.67737657438004    3.85376144785077   17.11783587529049
C         9.60570279219434    2.80153237645479   16.84466310335331
H        10.63015435109427    2.67237740888423   16.56489832415552
C         9.45781698992123    5.22660359256000   16.13507013655699
H         8.62658273355560    5.95192814576191   16.19521455328385
C        10.61209619922240    5.74596806405529   16.98458972720966
H        10.29465497348505    5.85304827101882   18.01972697561758
H        10.92327889136419    6.72049842045634   16.61863576754403
H        11.46180348458342    5.06793455698616   16.94337322861480
C         9.84095984723726    5.03638270136778   14.67146286410224
H        10.67107565542933    4.33967541524986   14.57652715291358
H        10.13674551214091    5.98974977617095   14.24265048318487
H         8.99306219428419    4.65057967517460   14.10897923168822
Br        7.27098516147171    5.79344028203417   19.16617154867328
N         5.17851989600346    7.87158174140942   17.07467873624410
N         7.54390652949285    2.59262495599653   17.55196471811498
C         3.97204137591565    8.51747294750895   17.09122811080330
H         3.89682800351398    9.58482360287714   17.04763720920292
C         6.44685845981635    8.51683112830096   17.06438782775011
C         7.21109998208812    8.50267388731112   15.89773677710122
C         8.48260839484479    9.05881283327854   15.93663180139115
H         9.08840649699358    9.03684162071496   15.04137829760955
C         8.98477317537383    9.63651413657438   17.09129927651333
C         8.17593121028162    9.68802609679847   18.21871207787624
H         8.55194480742879   10.15322235696552   19.11792758744615
C         6.90420049782786    9.13982530543067   18.22807774461710
C         6.67176181006861    7.91780291865429   14.62890075436929
H         7.31679915946004    8.16281341016530   13.78942964691150
H         5.66975583382044    8.29365755325703   14.42353486833837
H         6.60630586526960    6.83165123573853   14.69571832660941
C        10.37069952930544   10.20398701382667   17.13607922086122
H        10.98504832667400    9.63245624896555   17.83119526244158
H        10.34954217282282   11.23548581157056   17.48385756038266
H        10.83792919379295   10.17594153941055   16.15476063963911
C         6.06030274301791    9.19037213371124   19.46370598047844
H         6.55525845106349    9.77463476268713   20.23386258335251
H         5.90705468774520    8.18359595916086   19.84965253462957
H         5.08495813342462    9.63120082870816   19.26266692068348
C         8.73044533474592    1.92585849023765   17.39065594658004
H         8.86008239721229    0.90142432431378   17.67028412451122
C         6.30515138236832    2.07197371021132   18.09947610768204
H         5.57871916235679    2.90206404131146   18.03793917114274
C         5.78850465142346    0.91614536396469   17.25033839703171
H         5.68288900621212    1.23233674025516   16.21466361240222
H         4.81370871946920    0.60420828176733   17.61498326931044
H         6.46741441043246    0.06722535599155   17.29368113425490
C         6.49431542068796    1.69011634987556   19.56356356390168
H         7.19330225633276    0.86208142136364   19.65995239398486
H         5.54117920493387    1.39173615938538   19.99109010234690
H         6.87684626791121    2.53937994157172   20.12619991332298

