108
CSD_code = ESEXUW | q = 1 | S = 0 | Stoichiometry = C48H56P3Pt(1+) | MND = 4
Pt        4.34657324482333    4.47779093299612    3.30141196433481
P         6.25152227662398    4.45101073501751    2.01397628427531
P         5.93824240003296    4.61071101310301    5.07666590777268
P         2.83975900846353    4.06318823530495    4.95773757509042
C         2.92928343885953    4.13654501234744    1.82981557359496
H         1.92716703046261    4.28379080106182    2.26909778820482
C         3.00310315023668    2.70569592847204    1.32301155824866
H         2.86035479256085    2.00430980239754    2.15214999674247
H         3.97834992503771    2.50266838274993    0.87395841743368
C         1.88733806017761    2.46934291890211    0.29589815861258
H         0.94233638047490    2.70025813880051    0.80527445197909
C         1.81313279125928    1.00835974846667   -0.13903597218923
H         1.75981547755691    0.36937187603948    0.74629101518512
H         2.71062794862122    0.73196093038170   -0.69366970202525
C         0.57416865197646    0.79553939483675   -1.00149703008211
H         0.52535282114506   -0.24105752190360   -1.34056343480465
H        -0.31696642904232    0.99089925725916   -0.39957424428622
C         0.58891022951136    1.72955993806744   -2.20671169680763
H         1.40615081377859    1.44369043438876   -2.86786425444226
H        -0.34246513212024    1.61185980502673   -2.76455305188379
C         0.72132518893190    3.19696879375230   -1.78202730386907
H        -0.13073766232958    3.41759375658512   -1.12696599474592
C         1.99256635448975    3.42958904170991   -0.90911595776685
C         1.97384260723140    4.86626794648095   -0.35953140228317
H         1.00668606471555    5.05268796250633    0.11300897903437
H         2.08244547501246    5.57411241988377   -1.18225455079961
C         3.07470366524885    5.11971711812804    0.67784899343015
H         4.05454367042056    5.01630449666316    0.20327407535682
H         2.98149372989180    6.15036821452499    1.03773331560612
C         0.61341341277605    4.13698180266308   -2.96477270779693
C         1.17080594975938    3.71074714334839   -4.29095454764413
H         1.18286692920797    4.55132307146567   -4.98021459448789
H         0.54421860906654    2.93139108264572   -4.72357708658830
H         2.17874897621774    3.31597450579257   -4.20474177250359
C        -0.01859091628494    5.29632428697789   -2.84873934764223
H        -0.11336923976218    5.97669902273879   -3.67811864819878
H        -0.47594422252853    5.61392729202195   -1.92707104886113
C         3.27201540015292    3.22339518842807   -1.72254174113117
H         3.39537546835112    4.04275294981086   -2.42632975224077
H         3.25104300539066    2.29117562251482   -2.27721736604693
H         4.14881487823086    3.20338839260775   -1.08363517913687
C         6.60979111686290    3.88472391921818    0.33012088549542
C         6.73389511173897    2.52599227291219    0.05074113484963
H         6.65674692456985    1.79867061339391    0.84662135528156
C         6.95206292587260    2.10434618838040   -1.24823548696489
H         7.05359749932912    1.05070555050864   -1.45977658864377
C         7.03408150193486    3.03045780710494   -2.27575566343030
H         7.20278175450203    2.69798794119200   -3.28816790718522
C         6.89228684851147    4.38211603226661   -2.00485283974661
H         6.94819956698164    5.10359678158667   -2.80547739630354
C         6.67403600107278    4.81056251198740   -0.70862422985519
H         6.55684682705394    5.86421542285145   -0.49422937533575
C         7.02174784433271    6.08566856713565    2.13822277536888
C         8.33632985072520    6.33308933882565    1.75740060513783
H         8.92559415399213    5.54625517730814    1.30638037814472
C         8.87848314625320    7.59042356622353    1.95151617989665
H         9.89885363975954    7.78616496434626    1.65872159573363
C         8.11601297385470    8.59875003399240    2.52191134249406
H         8.54754592363813    9.57612568607275    2.67349518584690
C         6.80183069054410    8.35904445287158    2.89102962379426
H         6.20887719473688    9.14885370676047    3.32658823142985
C         6.25601013712579    7.10401203594022    2.69716434531489
H         5.21807867580660    6.89511139314454    2.96287226161299
C         7.39348475559057    3.40778917978462    3.04822533697853
H         6.94279328579021    2.41141228304136    3.11355000630097
H         8.36008425052949    3.30753363939495    2.54476991721770
C         7.56484750903274    3.99633118454955    4.44891424568014
H         8.23222595243067    4.86386960803565    4.40906775102005
H         7.99591001931067    3.25663016795624    5.13039381103691
C         6.35579658404281    5.79385182744361    6.38893593059236
C         5.48400762040050    6.86103071862031    6.58212035604156
H         4.61642498160444    6.96065214987753    5.94117477902678
C         5.72622942158528    7.78356382715223    7.58316041813739
H         5.04567182636385    8.60797601129459    7.73348640488819
C         6.84607741872807    7.64817124760248    8.38725402465532
H         7.04125844210921    8.36910995605561    9.16605749987735
C         7.71961456486768    6.58913042185505    8.19328856534054
H         8.59129665370267    6.48705875764116    8.82182727657842
C         7.47861050025813    5.65944688260543    7.19849074570948
H         8.15985562462588    4.83327976923627    7.05461531929508
C         5.25632221724069    3.19151251992850    6.05404834562705
H         5.27648676475281    2.30934986393279    5.40264394098512
H         5.87322039544423    2.99368362199196    6.93609236379986
C         3.81620912952464    3.52508830565735    6.45083965269752
H         3.81702180985776    4.36086582063290    7.15878251911087
H         3.33062526169487    2.67035577334639    6.92984461161940
C         1.95590819738154    5.54238512721841    5.49744827732350
C         2.11361647529755    6.68658030429715    4.72129877539522
H         2.72619364685002    6.62650139821405    3.82133241785899
C         1.49181869864136    7.86494328840514    5.09089255601486
H         1.61044949769320    8.75413372620497    4.49038069588626
C         0.71306633151435    7.89813724305203    6.23724101539215
H         0.22594882737366    8.81583156890245    6.52902703313757
C         0.55221139821495    6.75777453602115    7.01054894692777
H        -0.05942162784876    6.79128299814751    7.89921313769449
C         1.17165505629945    5.57638108673636    6.64554105073365
H         1.04606435934920    4.68149686441500    7.23940345769975
C         1.58043800137538    2.78687866165970    4.71875760171161
C         0.27789360813074    3.13243608234599    4.37178386921850
H        -0.01330702962677    4.17364592100326    4.34871922442253
C        -0.63924077545164    2.14308657001954    4.06662914210914
H        -1.65085658404604    2.41253447056310    3.80363702860279
C        -0.26065588230584    0.81054500141254    4.09162088005677
H        -0.97734062392242    0.04158493338560    3.84800628946950
C         1.03941928216201    0.46305430743082    4.42366652605673
H         1.33519132312135   -0.57521013113715    4.43699378099630
C         1.96093132958198    1.44689294381963    4.72855368201538
H         2.98032696712900    1.17744972040443    4.97187871010706

