62
CSD_code = ESEXAC | q = 0 | S = 0 | Stoichiometry = C23H35Cl2NZr | MND = 8
Zr        7.48155321166147    6.41183804345821   20.63097240687456
Cl        7.86308341687308    8.39297104582548   21.79698693806009
Cl        5.53707539892152    5.85174070420115   21.80616506217368
N         6.49170795710300    7.03878385264164   19.04187676374305
C         9.15390148042612    4.95608720898729   19.70072532261569
C         9.82199615873854    5.72203904184556   20.70707381943548
C         9.27520770139132    5.36560339694749   21.97185048037703
C         8.29111228553939    4.36777153365047   21.76511719652202
C         8.20047969413716    4.12226028865312   20.36622896999152
C         9.53425973532397    4.84770448851093   18.24624000670981
H        10.14083001517941    3.95285383836097   18.08276165922754
H        10.11775406950086    5.70804843328416   17.92438845505934
H         8.65565493159271    4.78285639107216   17.60226158701485
C        10.99956160394360    6.64578143894450   20.54918429987472
H        10.76735775860118    7.64964421981152   20.91732914600138
H        11.31467059304307    6.71517804007446   19.51098250312810
H        11.84392203159243    6.26986571286615   21.13069988672887
C         9.74899931169320    5.90200398212168   23.29402694800113
H        10.69913695287885    5.44177094071331   23.57710671933901
H         9.02477839368998    5.69090497060088   24.08021984885381
H         9.89957625531705    6.98240603441715   23.24520970509168
C         7.55466138054539    3.61001888778467   22.83392711982945
H         8.17456484284759    2.79263366463453   23.21162713334471
H         6.63020454472723    3.18804432960821   22.44293615035724
H         7.30009953548948    4.25764492267465   23.67361269810918
C         7.30152628846233    3.09151151562822   19.73805313347814
H         7.48164972805104    3.02353457256492   18.66777248935951
H         6.24733262474983    3.33840371533889   19.90359371836935
H         7.48804911818805    2.10839302824922   20.17419962452234
C         5.20603314989323    7.69953712273559   19.27291458788801
H         4.93286550995668    8.31877735399962   18.40930313761834
H         5.28187630768071    8.35233038659519   20.15766278867911
H         4.38895293005736    6.98617030639088   19.46091316681212
C         6.91520019431836    6.95950699151011   17.70570116131338
C         6.23448600950900    6.16099294726449   16.76689461792870
C         6.62472614934484    6.19829743741059   15.43510924427285
H         6.09187112968489    5.60766192711315   14.70565102100967
C         7.68715069093401    6.98006207085743   15.02785444504176
H         7.97062237125149    7.00992079608772   13.98649201124035
C         8.40062082658731    7.71521870754970   15.95978433149188
H         9.23748730032919    8.30694007638041   15.62473761084835
C         8.03838620523685    7.71421733197609   17.29676519230459
C         5.12656261159412    5.23250470866574   17.21338900404037
H         5.16955538826022    5.16922042719625   18.31142085339821
C         3.75272948027699    5.75494499687159   16.78386940641309
H         3.56700786612781    6.74969045050426   17.17824172001012
H         2.96986489466165    5.08951530839667   17.14122928665239
H         3.69435354685511    5.80421100711448   15.69839157668169
C         5.32746348166127    3.82086618414185   16.65160357750521
H         5.08828028015850    3.78417672639237   15.59176617929445
H         4.67509144917040    3.11960356242421   17.16683784926378
H         6.35664847280973    3.49361397675128   16.77816702711079
C         8.78862811700122    8.52808108193249   18.33376245423759
H         8.83184977785718    7.92055321723226   19.26645203036442
C         8.01797160130729    9.81493653969135   18.65635991442913
H         7.89709646080169   10.41553119985790   17.75634844623025
H         8.56174286738271   10.39626023487997   19.39789448350323
H         7.03629122049717    9.58411873292576   19.06141389508022
C        10.21255983393183    8.89269936052233   17.91149697902740
H        10.75640267722137    8.02538725600911   17.54330904427493
H        10.75168998397634    9.30601128660257   18.76070090293595
H        10.19882419345916    9.64774204236898   17.12863226073447

