136
CSD_code = ESIGUJ | q = 0 | S = 0 | Stoichiometry = C56H70N3O4Si2Y | MND = 6
Y         6.98566179636978   11.75457446107874   22.11296257356310
Si        5.68276910813851   11.11921476536535   25.17243139568738
Si        8.35675755946079   12.57420059892615   25.09906051080790
O         5.21679138747579   13.74148929913079   22.49399342042513
O         8.96906163543236   12.19336821850734   20.93425212798871
O         8.78057071387641    9.79737741844882   22.57412087435764
O         4.95911390110346   11.22204738506663   21.05319001002405
N         7.31757953350571   13.60072274505368   20.54095171573589
N         6.61990942453182    9.81949385765465   20.68011069142501
N         7.01034953775105   11.82373387509278   24.32683784637028
C         5.89266151459871   15.56520366100440   20.34887324095491
C         6.60708756815547   14.50805826707288   19.75325679553769
C         6.51363468559011   14.32636503310796   18.37296389192109
H         7.08151712049568   13.53511515198693   17.91158489848722
C         5.68895751135708   15.12501522642709   17.60784321795124
H         5.62963545617427   14.96932162445156   16.54057245586851
C         4.91890721123241   16.10075761970318   18.21109121017711
H         4.23753179758149   16.69763118556098   17.62227409644568
C         5.01488543991976   16.33073905963570   19.57758695742480
C         4.12429045769106   17.37471555388961   20.19004686531474
H         3.08743588240208   17.17206314069856   19.92211336506366
H         4.37325772179098   18.36287607745437   19.80511824752622
H         4.20575773485193   17.38964517045515   21.27324134413169
C         6.11444421872101   15.89029779486736   21.77879149289051
C         5.77447287236046   14.98569887473773   22.78993581683229
C         5.98629492592584   15.29224604947316   24.12628478946439
H         5.72263857788345   14.55903646460921   24.86992942902432
C         6.55466532195871   16.50446495858445   24.47133330711767
H         6.71655922440538   16.75172494049024   25.50955034646971
C         6.91696421037830   17.39730634595189   23.48139159147283
H         7.37378036795404   18.33972613941056   23.74711525936567
C         6.71198340556704   17.10615577109513   22.13863748925134
C         7.15154727154933   18.11096378240796   21.11383898114690
H         8.10470605293692   18.54637046450025   21.40704181369081
H         6.42663755921781   18.92184117883945   21.04707517600484
H         7.25419622554217   17.66107046516705   20.13047353601272
C         3.86488288498269   13.84298384647352   22.05602303088638
H         3.78889832349815   14.43027180494462   21.13657855328555
H         3.24635845204990   14.30653193108085   22.83392806816900
H         3.52661958607629   12.82831721611359   21.86142812740793
C         8.52361111668407   13.17034464039347   20.25341413751309
C         9.40255380567268   13.79448546786844   19.21659691411976
C         9.71671457936639   13.09201235786501   18.05307377910873
C        10.50933887579266   13.70061591124866   17.08814278373424
H        10.73722598071534   13.15635243285290   16.18207177716119
C        11.01301476093149   14.97799697551245   17.26431997213104
C        10.73332534873924   15.63893595633779   18.45287250002431
H        11.14781666011773   16.62356449443688   18.61907021897016
C         9.94350712571174   15.06482496953202   19.43590611591542
C         9.20646324122956   11.70283539808701   17.80885824271928
H         8.82460287464108   11.25646818586300   18.72335082216853
H        10.00571541474838   11.07110068872700   17.42482764422670
H         8.40992945109578   11.71249960474552   17.06297058420468
C        11.87221506664621   15.62638537113472   16.22113157869093
H        12.91192641192366   15.64109651395984   16.54851011192515
H        11.56123326289514   16.65596313939402   16.05418524905830
H        11.81775397759302   15.08515501469179   15.27997439266080
C         9.74555848848413   15.77118571509553   20.74145565685157
H         8.72667061365469   15.66792887138102   21.10189619366179
H         9.98793792336652   16.82699713487883   20.64835215724241
H        10.40304211839357   15.33317926709967   21.49312092242982
C         8.05618474469184    7.85970541728800   20.54872168274411
C         7.31926009199193    8.88092607199165   19.91915741101425
C         7.37846219345932    8.99640811920048   18.52997098372260
H         6.79684253715411    9.76307087980171   18.04474915310545
C         8.18914499476001    8.16441363906467   17.78537441338228
H         8.22248980885708    8.26819088946301   16.71070664934271
C         8.97879186567644    7.22265695024209   18.41661404328946
H         9.64857633997799    6.60025053402603   17.84109699961252
C         8.91884830863309    7.06064224738881   19.79492786039127
C         9.82935128349528    6.05185852208357   20.43633778617846
H        10.85771853142359    6.24111433300023   20.12897971484167
H         9.57205780996665    5.04436211127207   20.11172109987745
H         9.77806108991581    6.09432130718404   21.52068091988750
C         7.87380060526957    7.61001129747935   21.99917646517132
C         8.23693845394113    8.56867190897760   22.95055896042271
C         8.06151391801246    8.33425698596846   24.30647511012617
H         8.34543658133208    9.10771992718124   25.00029764382127
C         7.50263915003145    7.14345597112402   24.73202837557134
H         7.36375286662636    6.95458446209510   25.78575048268933
C         7.11827724416042    6.19746604984834   23.80154104292029
H         6.66958928495796    5.27096120198365   24.12963613056168
C         7.29015259104383    6.41435084538829   22.44014958853652
C         6.82995124831222    5.35325119096873   21.48330117540811
H         6.70957478990658    5.74568189114844   20.47759701637978
H         5.88165551834645    4.93801363191119   21.81845423233732
H         7.55242117669222    4.53808719689635   21.45042796415359
C        10.12556032930520    9.67790072800425   22.12051269979000
H        10.19075520939013    9.03399262031714   21.23884719561536
H        10.76077088575611    9.26912672879794   22.91548907319315
H        10.45315568983037   10.68011377260801   21.85590431474103
C         5.39950198468734   10.21902588600950   20.40903560571258
C         4.50356475281449    9.53497500440540   19.42617709779768
C         4.17803001548503   10.16890271736136   18.22642670414248
C         3.36850421619422    9.50965907457558   17.31241651869891
H         3.12827235447071    9.99772644209026   16.37795288669749
C         2.86013416146883    8.24623757849304   17.57265304832785
C         3.15684027463311    7.65405777869580   18.79071955578189
H         2.74535738531663    6.68145901577884   19.02224632587996
C         3.96522504723000    8.28207705896611   19.72677586318923
C         4.68238328738531   11.54338176801563   17.89921664347671
H         3.84295394189668   12.22790726294681   17.78086715972338
H         5.23546376616417   11.53686648666001   16.95950876197788
H         5.32118543204864   11.93169794391769   18.68852850818631
C         1.98904305288028    7.55879632818359   16.56476688820159
H         1.04611737975676    8.09398710856771   16.45471834462104
H         1.77221746004478    6.53801771783334   16.86880763162798
H         2.47523247933390    7.53858093245670   15.59075483013067
C         4.19292490975138    7.65051536828943   21.06516812039371
H         3.91851950949256    6.59861167125340   21.04673408801522
H         3.57957098655610    8.15316248690117   21.81333058969654
H         5.22828771885509    7.74504541701420   21.37865599064481
C         4.29420927869835   12.34836999869823   25.68707233515165
H         3.92625955718049   12.91297760904679   24.83758099312983
H         4.63728153849967   13.05325133764222   26.43816801769577
H         3.44964222691289   11.81265073007915   26.11105031634949
C         6.15080898487983   10.22911561570874   26.80437607122812
H         6.87534679091735   10.80933044747977   27.36371330949687
H         6.57621725960193    9.24821469334127   26.62900024010093
H         5.27796707527688   10.09676321711281   27.43550542432551
C         4.84919497502691    9.84542294727808   24.01291093902585
H         5.58825404083235    9.20332009252172   23.53809980174550
H         4.28471646479683   10.35208881791323   23.23380646254710
H         4.15893299813269    9.20414187267903   24.55346337423527
C         9.72403590399848   11.36553090775407   25.70803456000787
H        10.10019980771500   10.74669492127135   24.90073160528992
H         9.35661984497534   10.71227668072191   26.49333571755278
H        10.56764039938246   11.91620103400120   26.11442975556746
C         9.19664527160357   13.72933344844632   23.82522509841727
H         8.47090805806606   14.39380601286642   23.36085912851674
H         9.68250923581111   13.15027655868765   23.04313619991041
H         9.95614994993850   14.35069657898237   24.29112372727866
C         7.92086539254595   13.62194459119464   26.64657909319796
H         7.01329782035128   13.26216731480542   27.11659685448490
H         7.77583089709640   14.66735008132792   26.39980976633746
H         8.71396968949717   13.56955047368236   27.38520754038927

