45
CSD_code = ESILEY | q = 0 | S = 0 | Stoichiometry = C14H22Br2Cl2N4Ni | MND = 4
Br       -0.22314036980497    1.86389596119010   14.45577809476106
Br        1.07347682363869    1.68512237718361   11.47275133069095
Ni        0.60454539642482    3.28019293306566   12.95205528711117
Cl        5.93053245576951    2.67025262267789   12.76686660757262
Cl       -4.71476210122316    3.94334639742752   13.14188718671162
N         2.09598407582321    4.53484457867805   12.36650584151727
N         3.23759088255118    4.54521630181637   13.07532618529807
N        -0.55041622402157    4.86082911352482   13.51179874566811
N        -1.65825059000974    5.12695221173203   12.79953210246134
C         4.23802357994666    2.28627275014123   13.17699131191669
H         3.72333019285822    2.07018718173318   12.23973872857314
H         4.25622348420027    1.39259558834977   13.79994183278150
C         3.55727839023225    3.42838441581953   13.92643758950195
H         2.60443326779564    3.03187225955193   14.32468868829359
H         4.17528299606501    3.76902527479782   14.75922425982730
C         3.96614825601059    5.64599061862922   12.79562678811645
C         5.24906777280420    5.97510201968669   13.46199231884191
H         5.11472766568039    6.04723302489748   14.54182269895717
H         5.61278842230341    6.92939348601472   13.09218273643844
H         5.99787549099640    5.21174055666057   13.26225992899619
C         3.25156123193684    6.36035741266658   11.85471235012402
H         3.53034248233710    7.28922797041845   11.40165293888526
C         2.08739398841980    5.62276310361138   11.60995343123856
C         0.97540171187349    5.92819128996172   10.67301032610714
H         0.41867861917762    5.01793413686478   10.45318234680899
H         1.36962332613977    6.33407751378179    9.74433918743047
H         0.29821332129101    6.66488640290230   11.10751909664763
C        -3.16126672257570    3.16460452396397   12.74163116268696
H        -2.70825927072911    2.85244271481832   13.68364475392638
H        -3.39053609818785    2.28778497529112   12.13674466000129
C        -2.23470823976560    4.10031695886161   11.97010070854275
H        -1.40320661303637    3.48418271333007   11.57942690559387
H        -2.75966807407449    4.56083037014686   11.13116250090803
C        -2.10471903109242    6.37454171739000   13.05428742085315
C        -3.27543718167327    6.98339399165019   12.37834164982157
H        -3.13059580921885    6.99999748958895   11.29755839568328
H        -3.40307681948131    8.00387261579562   12.72784781605555
H        -4.18256808708395    6.42211929952910   12.59188109109449
C        -1.23924832559772    6.91851663269962   13.98238331457807
H        -1.28833453940484    7.89630479577789   14.41525092076165
C        -0.28274323981051    5.93112588265014   14.24594032799016
C         0.87011883024610    5.98316346907997   15.18176630897517
H         1.19695592016306    4.97163075138479   15.41988560534797
H         0.58214156197084    6.48685125482205   16.10153887126188
H         1.70169719013588    6.53203233942804   14.73772964461833

