40
CSD_code = ESIREE | q = 0 | S = 0 | Stoichiometry = C17H16Cl2N4Zn | MND = 4
Zn        2.04344038757523    6.02133677240201    3.17596716999580
Cl        2.55400390477598    8.06857008197704    2.45823994702967
Cl        3.73561353976937    4.57589888567964    3.20782973981475
N         1.77147383932792    6.41672894182211    5.27881355408338
C         2.01145995992327    7.62739742282669    5.76733095438291
C         2.07770908984195    7.88094875528945    7.12583280530000
C         1.88618238146920    6.82616249749814    8.00532156719529
C         1.63161081585888    5.56702015706450    7.49033478546975
C         1.58327851468254    5.39621248915647    6.11093137323797
C         1.37239425288796    4.03513437634727    5.51033796766828
H         2.37380470934338    3.63255975314796    5.32784336926004
H         0.84979520194358    3.38600718532129    6.22973755806776
N         0.11756142398560    5.89127714655383    2.24909065827247
C        -0.07850123511413    6.45837103295767    1.06441451818881
C        -1.30924196852956    6.46572324079027    0.43737085087443
C        -2.38327926128422    5.86587138266646    1.08164347573703
C        -2.17698498446537    5.27941243679591    2.31443493383314
C        -0.89710171080500    5.28765042322328    2.86345410136536
N         0.68921253186900    4.08632685249118    4.23830406164477
C        -0.61851553369260    4.71804092396092    4.22708180603790
C         0.78803993915225    3.02267409755703    3.34914927487040
N        -0.17969251209284    2.99326748293365    2.43546904893568
C        -0.15245177979422    2.07684715337243    1.48305868510929
C         0.83165664721564    1.11363695020555    1.39131356073353
C         1.82983813243687    1.12106702675024    2.35902317667018
C         1.81426905391327    2.07194097414340    3.35817335741708
H         2.15701551081418    8.40550538663681    5.03073713214786
H        -3.36425414521365    5.86228486688555    0.63008974318767
H        -1.40936009048575    4.00240568814951    4.49037657840887
H        -0.96830947679679    2.13054022076979    0.77326118294017
H        -0.61840747084023    5.53293942546011    4.95572667650708
H         0.82367267325925    0.38404114392875    0.59791948296277
H        -2.98481184472857    4.80226356577544    2.84650560968522
H         2.27799697091815    8.87791836293880    7.48285648884610
H         2.60093155992375    2.08742305704684    4.09111079012519
H         1.47808457023299    4.72147174872987    8.14311113077977
H         2.62035313463893    0.38601442343346    2.33282874447868
H        -1.42556301044881    6.93578586460801   -0.52553715388255
H         0.78176438345528    6.94185792716877    0.62462487141213
H         1.93291189507469    6.98066387553326    9.07288642120573

