39
CSD_code = ESISOQ | q = 0 | S = 0 | Stoichiometry = C14H18FeN2O4 | MND = 6
Fe        5.94914642823294    0.00008325943139   16.02359447802219
O         7.01167658656703    1.32585969262298   16.79225747784668
O         4.52117515348085    1.11179648096726   16.06507856969682
N         5.76946873748289   -0.75048395746415   17.91954383321402
C         7.11877204769320    1.23340353118750   18.09209447960778
C         6.46783789792897    0.18292380469866   18.77173473938742
C         6.50660942618862    0.08080733554722   20.14724474530370
C         7.21724553033339    1.01538902393366   20.88716957722749
C         7.88623068558849    2.04001584826511   20.23566951670247
C         7.84566390258036    2.15715079616288   18.86072701213746
C         3.62615835067755    1.28374361987735   17.10010013288808
H         4.87322215194075   -1.02339912270370   18.31682180448635
H         6.32559313906864   -1.59924055317860   17.80151946293506
H         5.98378330838238   -0.72530825843821   20.64476598223807
H         7.24924562635260    0.94036203311799   21.96301238845348
H         8.44318145315844    2.76369261760558   20.81275584474274
H         8.35465794889692    2.96282898818106   18.35521611424462
H         3.05415590578523    0.36195634858168   17.27257522823387
H         2.92081683266917    2.08111584455341   16.83274345061869
H         4.13076574670663    1.56641140579370   18.03314116776074
O         4.88662788544336   -1.32571837683316   15.25489282221649
O         7.37709976069383   -1.11166453154154   15.98213217072162
N         6.12884625656315    0.75065612308693   14.12767946611309
C         4.77973169752469   -1.23335035927480   13.95503444203698
C         5.43072407190708   -0.18288106888342   13.27542972085185
C         5.39224250351785   -0.08090075333057   11.89990311997391
C         4.68181083216442   -1.01559030099898   11.15991891190655
C         4.01274610706966   -2.04018976757032   11.81137699850131
C         4.05305517858953   -2.15721096080137   13.18633652303799
C         8.27210766505899   -1.28365919111166   14.94711027166126
H         7.02510445280500    1.02369190536909   13.73051096407446
H         5.57258506090305    1.59933657958934   14.24562042051804
H         5.91505861165685    0.72524497343390   11.40241999686739
H         4.65002649467973   -0.94066359912294   10.08406314237851
H         3.45602415939386   -2.76399985639695   11.23423697969874
H         3.54406015591822   -2.96291393689737   13.69180729869887
H         8.84412624093413   -0.36188700585044   14.77458469102731
H         8.97742613961576   -2.08104329500516   15.21448699036579
H         7.76748986584795   -1.56636531660482   14.01408906360373

