83
CSD_code = ESISUU | q = 0 | S = 0 | Stoichiometry = C25H51N2P2ReSi2 | MND = 6
Re        3.53018724345574    4.34685356625673   12.31076833881831
H         3.33914328027356    2.89949244004549   12.99748001104304
P         1.98087024910481    3.96477056566029   10.49680766618594
P         4.68664018096144    4.94103715175911   14.32616193445554
Si        0.72211812996783    6.13219472265970   12.24174390614894
Si        1.74199014819115    5.31696761325180   15.00023987088386
N         1.86531234149512    5.37557702772973   13.28221527117801
C         1.35937832055230    7.82102872158247   11.58742082531333
H         1.43716029179587    8.53939761641848   12.39834163917101
H         0.68028320108402    8.23747456618356   10.84828219309776
H         2.33951950154418    7.73982890698374   11.12503653665473
C        -0.99912134038481    6.42006994832983   12.99363886717553
H        -0.95612512141755    7.21203816200835   13.72958457379034
H        -1.38389348273240    5.53364230416137   13.48438334735930
H        -1.71049154893616    6.71732520221767   12.23075830192499
C         0.47470485237433    4.97871291247667   10.72198596568678
H        -0.36871779630762    4.31555860623448   10.90553739536467
H         0.26945618680030    5.54142241176875    9.81255082917759
C         1.30754281599657    2.22227799850765   10.38147634086078
H         2.19483131023629    1.58882193412450   10.25573405741087
C         0.64959137045656    1.85466136249296   11.71034659842707
H         0.49199122066582    0.77862211130553   11.77186837977527
H        -0.31670224170783    2.34312191522900   11.81978685625194
H         1.28383302563351    2.16394776947147   12.54108565932855
C         0.34370745146176    1.97952816247725    9.22329205421146
H        -0.09606096760552    0.98709807447411    9.31895920626038
H         0.84524923320808    2.02964941526473    8.26021763654668
H        -0.46736204153209    2.70583323050198    9.22972103633177
C         2.41607997154644    4.33916097618443    8.72018997186514
H         1.49380916686690    4.21693994932031    8.13738214315622
C         2.88861152987646    5.78325859311163    8.60028995553415
H         3.12053552183668    6.02169367755950    7.56257507126025
H         3.79005793863505    5.92248124729133    9.19518418083455
H         2.12999999981180    6.48104797968190    8.94966165153376
C         3.48979674521402    3.39434536662683    8.19277858147220
H         3.70663654204647    3.61996662077717    7.14884993841592
H         3.18098937974183    2.35395176771168    8.25990130222004
H         4.40400493475184    3.51608907571537    8.76725241826868
C         0.61857480975319    3.88249968185271   15.59325199838366
H        -0.39938442070335    4.03036800819610   15.24849699379708
H         0.59179397956437    3.82801881273287   16.67750197460797
H         0.95674667200510    2.92104761555981   15.21818782437830
C         1.09044172776587    6.92427351260555   15.79968283367708
H         0.02171731033208    6.83480589561808   15.95168556276290
H         1.26054629939871    7.79615590025520   15.17811908307870
H         1.54101574506178    7.10767679387450   16.76962716738933
C         3.49379828893180    4.93265463566115   15.69821779323383
H         3.81014658060455    5.62393503371342   16.47720705163941
H         3.49025327631696    3.92851271112737   16.11661284428293
C         5.42103162575143    6.65612770809174   14.38943407733048
H         6.10495614169824    6.69314857060780   13.53206361910107
C         4.30326301947969    7.67050798839488   14.16798449088723
H         4.71099181191146    8.64078014126040   13.88431452757476
H         3.72129508982472    7.79681572776867   15.07782049371670
H         3.62782468475426    7.33153845639722   13.38467722715922
C         6.19876292825036    6.99506121998751   15.65796738926393
H         6.51336882475933    8.03784257539080   15.61785942189826
H         7.08880444321634    6.38154473492348   15.76798435530478
H         5.58181889557840    6.86964995509553   16.54557690198667
C         6.08747496646958    3.88099201682570   14.95617860154131
H         6.33042929314541    4.21641003985505   15.97217211795054
C         5.65344023870150    2.42090071231447   15.00042730406944
H         6.46921657943945    1.79499560541122   15.35977714911654
H         5.37428384142771    2.10015345133206   13.99872330167063
H         4.79885112537619    2.27774071258145   15.65712696878057
C         7.29882951840960    4.02266800983850   14.04052209658416
H         8.07961137797421    3.32202824080328   14.33393998226416
H         7.71528798362354    5.02615771548752   14.06747960452505
H         6.99942444690063    3.80205809746495   13.01815052097017
N         5.08603269680408    2.99980071503591   11.27800674593168
C         4.92041041409958    5.52440440386272   11.32306569555925
H         4.77747065561425    6.61054573503351   11.35703225109345
C         6.00476851879982    5.05834824264678   10.65922255452149
H         6.74297108278485    5.66399400364518   10.14894623475769
C         6.10593352304383    3.63785058868587   10.62783532401213
C         7.11663649773781    2.91729081952590    9.97460647660871
H         7.90955095796865    3.46403699034821    9.48762492219566
C         7.08093476383219    1.54498055656485    9.95911135369577
H         7.84881407972576    0.97333379089561    9.46047243807600
C         6.02066721119641    0.90348115485079   10.60348494526561
H         5.94710647360842   -0.17189942534760   10.61031466310221
C         5.06598001039862    1.66322932686811   11.24144472064426
H         4.24244846368906    1.18514314293179   11.75496988219554

