42
CSD_code = ESITUV | q = 0 | S = 0 | Stoichiometry = C19H22Zr | MND = 12
Zr        3.08047603453331    4.01031598921572    2.88075683834038
C         2.14756267146000    5.18172399151031    1.24502665117882
H         2.49573774324319    6.22594458136939    1.21319653218373
H         1.05077882716767    5.21330392369183    1.36823832285479
H         2.34615418601638    4.75542522637757    0.24867872477750
C         5.14460740604752    4.32254362775147    2.15114105485513
H         5.30830884031988    3.91218971263435    1.14238024782209
H         5.86518166471294    3.82125696996023    2.82016604301408
H         5.43336332707066    5.38493196063340    2.10715638719174
C         1.16938302600624    2.27749113089935    2.80890847185929
H         0.11259081017253    2.51747451326726    2.83189232680270
C         1.87708305142787    2.01500178156578    1.62284267501421
H         1.45601046218094    1.98087717073277    0.62692290166594
C         3.18305790495150    1.60132984744907    1.98503709093478
C         4.27482317778263    1.16588189422416    1.21016210431105
H         4.17800395661335    1.10502127995525    0.13331896215592
C         5.43726569992743    0.79772971973388    1.83639555335221
H         6.28222896390023    0.45464738438132    1.25780771778752
C         5.54302716084750    0.84377573685253    3.23727840617801
H         6.47046966992335    0.53506468149974    3.69861945779804
C         4.49735478251763    1.24782534936852    4.03109545698426
H         4.61240437122637    1.19818967819461    5.10494651499548
C         3.27063283198544    1.63191458201641    3.43978027218407
C         1.98800337317928    2.04007759125326    3.93838599851520
C         1.67297912246852    2.60141101271100    5.32840913069136
C         2.29569899228831    1.79300713448698    6.47432515183813
H         3.37222930377051    1.90926112516898    6.52574141706969
H         2.06483965558964    0.73662536127142    6.35304564499346
H         1.88550442099672    2.12995321423213    7.42445460910420
C         0.15911707537113    2.64236557649930    5.58417748112109
H        -0.03606279166412    3.10957233114533    6.54745509136881
H        -0.23828969670407    1.62947444774871    5.60315230391886
H        -0.37627534643621    3.20586064176390    4.82579301950028
C         2.26143799851152    4.00678245413435    5.20843865141079
C         1.61360704316742    5.10187974279530    4.58352717123896
H         0.54579198045039    5.22780203637752    4.44302637576698
C         2.57462393200801    6.11132211644850    4.34791692869954
H         2.36260947094299    7.11689676476489    4.00774125968227
C         3.82231379826544    5.63537660487854    4.78646254405744
H         4.73723308807510    6.21122739906966    4.84386528718213
C         3.63956556892632    4.32861282656017    5.29335809365482
H         4.41136644075061    3.75723088540328    5.79647512592441

