44
CSD_code = ESIYOW | q = 0 | S = 0 | Stoichiometry = C14H21ClN6OZn | MND = 4
Zn        8.07932686524810    6.63067899618990    2.38411746392330
Cl        6.23704363913599    5.99459003200782    1.24281486824826
N         9.89377489748707    5.82751967702320    2.00913707980086
N         8.05332751782892    3.50669932274166    2.74451126737853
N         5.33198019222100    2.77939058227249    2.42252879112051
H         5.26743888085903    1.81483529675488    2.76801619911273
H         4.41208492103394    3.10089924545337    2.11206521087048
N         7.62987417254181    6.56207130894571    4.19871272194646
N         6.77896447300722    6.25200692995192    4.93435515707662
N         6.00506136855530    5.90408931824635    5.68969724083094
O         8.50537007466113    8.34116199055176    1.83086397048767
C        10.87171372262239    8.05997870796909    2.04251889593870
C         9.67773675107816    8.83889456124200    1.93905602847497
C         9.83326826528833   10.25255544103940    1.92173616383779
H         8.93172268640914   10.84132362278364    1.84127629369034
C        11.05779786572306   10.84670411752891    2.01165183629288
H        11.13481471813843   11.92556575487825    2.00132585504520
C        12.23570449066069   10.08402261281869    2.11694548568418
C        12.11846898115673    8.72063709568004    2.12534986986461
H        13.00967671528870    8.10971083138483    2.20210817360990
C        10.89200847299706    6.64522273233259    2.03405008161454
H        11.90085850741220    6.20765232951288    2.02061314474860
C        10.19029174617994    4.42142982681619    1.91966520649707
H        11.27293433209394    4.24648809947324    2.01222955940071
H         9.87336879325851    4.07367549917650    0.93040358964751
C         9.47414717010770    3.60408166622723    3.00058004403493
H         9.94711712553376    2.60820558179474    3.06628462068364
H         9.61020505707206    4.11499289082873    3.95489435652394
C         7.21575439918388    3.29565637791786    3.90246899688608
H         7.53665853807014    3.94124497286444    4.71691943456629
H         7.25511653350161    2.24572499852565    4.25924756079263
C         5.79343186606965    3.67092163953306    3.51903594454921
H         5.12022454513504    3.61039696700367    4.37308328230467
H         5.79628379278675    4.68466828792799    3.10587507018695
C         6.26529225317290    2.85149341498732    1.26723974691038
H         6.23476940533820    3.90062961772721    0.91780591796837
H         5.93907549000213    2.15632706410003    0.49377472431205
C         7.68340399509956    2.54779213070350    1.72797133360483
H         7.76116205396525    1.50592639866401    2.10589927016940
H         8.34544959898712    2.64327347660764    0.86833515718637
C        13.56486061706354   10.77229554686666    2.21467439597533
H        14.37496619153606   10.04844204066016    2.25985748468227
H        13.60581175031325   11.39441584553075    3.10860911034481
H        13.72385656617389   11.41880714875522    1.35199339317766

