61
CSD_code = ESIZUB | q = 0 | S = 0 | Stoichiometry = C29H19BCl3N6O2Rh | MND = 4
Rh       16.15691248746220    8.58687440501483    1.31400779307245
Cl       21.31778134834547   11.66305726725169    4.71449585322604
Cl       17.47481505811472   13.37224330436508   -3.47784755101461
Cl        5.73102477569162    9.33586448444027    6.95260917928421
B        13.45078802116349    7.42052713074961    2.34260861761389
C        16.67359629928577    8.45209538903495   -0.45660751591505
O        16.97455015612105    8.32378959130527   -1.54966227400158
C        17.78774082814537    7.94142078426004    1.90035178416521
O        18.77582508546865    7.50066979903473    2.26239881317014
N        14.25567309635760    8.08161364234697    3.48619091324239
N        15.44111592153840    8.63232737871879    3.21954754875850
C        15.94906087563299    9.09585348578870    4.37412370178127
C        15.03922581964467    8.82849972384311    5.40255122100218
H        15.13351951870106    9.08594993436902    6.43688026101300
C        13.98073331757500    8.19202372442989    4.78660853781919
H        13.05878928881564    7.83054695445614    5.19386992635557
C        17.25037630356239    9.74411249663630    4.46280789068556
C        17.72491143915693   10.54389668846635    3.42301719604793
H        17.08672637860942   10.73431388296906    2.56370982113118
C        18.97250127990316   11.13349753507218    3.49357968005317
H        19.33544499659157   11.75087131597090    2.68717538743971
C        19.75651793178211   10.93203408652307    4.61914863389974
C        19.29612450320148   10.15538184887322    5.67268305093629
H        19.91439155686074   10.01076832365128    6.54453252971387
H        14.10937945444724    6.55671929731116    1.83400895509677
C        18.04971140384434    9.56724513157239    5.59190179680688
H        17.69652403788262    8.94916405244338    6.40283359534503
N        13.22983623373373    8.56560192224171    1.32193683803380
N        14.28374287971435    9.16903956576917    0.77131085017502
C        13.82645038219261   10.07702911125048   -0.10744507381794
C        12.42791886986193   10.04312995554178   -0.09888423374062
H        11.75953891095613   10.65404989763252   -0.66902417873159
C        12.10015110310131    9.07500527022789    0.82877571181043
H        11.14097705579637    8.73540763314512    1.16254218874247
C        14.70848004643760   10.90626461889591   -0.91765958692460
C        15.92489493002396   11.36525642688404   -0.41207995293884
H        16.18533434248134   11.15537176334633    0.62217497871134
C        16.77821166072583   12.12096297047191   -1.19307576506209
H        17.71798427678539   12.47322779353331   -0.79825742144316
C        16.41253336617070   12.43209574772912   -2.49368449591152
C        15.19856376200646   12.00192382967189   -3.00978895355009
H        14.92442657750386   12.25515025025394   -4.02171378744886
C        14.35364791667173   11.24461347271048   -2.22324478419431
H        13.41675205895746   10.89435539672039   -2.62817196034956
N        12.12898305733049    6.91051235229090    2.84789422462861
N        11.28874703383923    7.69418343931454    3.52600036262909
C        10.21452000858631    6.96637136130800    3.81991366701026
C        10.37121490449874    5.66029507185168    3.30423336133217
H         9.69101594063034    4.83664952128184    3.36936165205027
C        11.60092502662268    5.67558768952494    2.69736330986927
H        12.13327746462898    4.90611833984666    2.17565946783741
C         9.10852923046912    7.52962114482569    4.57487266929381
C         9.17807622356078    8.85066756100733    5.02064158844732
H        10.05878407115681    9.42682831892637    4.78358543844786
C         8.14721441779116    9.40929446986701    5.74790432874090
H         8.20568183241824   10.43039218835532    6.09187712843005
C         7.02806121906390    8.64375190795413    6.03709862498504
C         6.93456038132564    7.33156644203987    5.60341606742857
H         6.05688849394531    6.74814392641488    5.83514586174833
C         7.97206384865637    6.78071383577121    4.87592142055982
H         7.89435128846477    5.75815514448998    4.54057510648368

