53
CSD_code = ESOBEU | q = 1 | S = 0 | Stoichiometry = C20H24ClN4RuS3(1+) | MND = 6
Ru        7.52395968280114    4.07940995682238   10.35264987077868
S         7.66852094710119    2.18539227157730    8.97446367361609
S         7.53826875453810    5.39689517813586    8.39789408816281
S         5.16024794782595    3.95497215342981   10.14936536518927
Cl        9.88766406291106    4.10363959236242   10.24786980103926
N         7.62064139497864    5.70725975613033   11.65558806514615
N         7.52657720191083    2.93220467525396   11.96098021690059
N         8.12942628866504    3.21610605712917   13.09961613689430
N         6.86447423284375    1.83929700055482   12.07187339420483
C         7.10608015189827    6.88338708170347   11.28971162742656
H         6.62411199431278    6.91865202159124   10.32162574968240
C         7.18012240240119    8.03033128754044   12.05567774375152
H         6.75117040216252    8.94910251790005   11.69099501522595
C         7.81630360632412    7.96894444232429   13.28488504487572
H         7.89382708969202    8.83714535728419   13.91923833662472
C         8.36137954577777    6.75699731310292   13.66942962168801
H         8.87991042585323    6.66670970930660   14.61053833667614
C         8.25973827448425    5.65075597328332   12.83429988255109
C         8.96316715418193    4.37672319465198   13.23512422900965
H         9.82437212755475    4.25689397000254   12.55479051160353
H         9.31363680289475    4.43983650302202   14.26536915805687
C         7.84816765187743    2.25366071949985   13.99808358455034
H         8.23776037139465    2.26084118227133   14.99306139512417
C         7.02869711994163    1.35747070502124   13.32684914098928
C         6.42491205344455    0.12059168711418   13.79166589063646
C         6.52377553444747   -0.26176230437958   15.12916390910520
H         7.04335192303346    0.36805126114399   15.83476731129775
C         5.95402610037721   -1.44522692258370   15.55809288719844
H         6.03576290842566   -1.73285786359393   16.59507972160541
C         5.28151851758762   -2.26145173276501   14.66301851487917
H         4.84070473189437   -3.18635641095482   15.00148666006698
C         5.17684248013658   -1.88740265162302   13.33298494629411
H         4.65390788973413   -2.52182855078917   12.63329443087818
C         5.74270371279578   -0.70471131555007   12.89885540069875
H         5.66825002558609   -0.40966150996007   11.86362402943634
C         7.68357343727652    2.83600776791174    7.25017429509972
H         8.31116746281148    2.15575508449572    6.67332438075711
H         6.66722572799878    2.79113642965416    6.86105243630132
C         8.26673355757561    4.23134523635863    7.19789765257755
H         8.16669134318730    4.67192873496637    6.20532986315295
H         9.32125875602955    4.21608703576297    7.48412498928267
C         5.77653359728364    5.45986746368896    7.82486382179845
H         5.64679866499257    6.43710881951106    7.35831135879112
H         5.65806438429305    4.69549613410500    7.05976936013485
C         4.77227230431089    5.29176638880922    8.94815064616076
H         3.77867369041953    5.07736703257206    8.55230089992692
H         4.70832573471719    6.18963353707534    9.56266523108517
C         4.86742221779817    2.49036816857808    9.06040952869508
H         3.94655254590019    2.03487929848492    9.42595745912390
H         4.69582783570110    2.86729561623728    8.05354868666654
C         5.99018943262512    1.47992429211366    9.10916353551803
H         5.87934029331791    0.72982129066570    8.32593844878352
H         6.02186750196692    0.99749936304989   10.08750371428421

