44
CSD_code = ESOCEW | q = 0 | S = 0 | Stoichiometry = C17H15F3MoN2O6 | MND = 6
Mo        2.31456154195538    1.42542931353465    2.39615803972669
N         1.97648165993583    0.40242292167905    0.51143273268882
N         1.38830246140415   -0.81676612911201    0.64459708467299
O         2.64166010643887    2.79747972760918    1.21942660305809
O         1.23612764729488   -0.12914232084894    2.79418133799949
O         4.96943237074902    5.55551507674418   -1.74311612112762
O         1.71068910516652    2.28907608575691    3.65543000803233
O         3.80598557413526    0.76323617168507    2.62547371362371
O        -0.18524095777780    1.94299491444624    1.40800835451441
C         3.12277372839999    1.91958527940319   -0.93944874826567
C         3.18633190468103    2.95851716161492    0.03580071961357
C         3.81545161637885    4.15725119860074   -0.29205186919604
H         3.86798226485794    4.94110854340889    0.44880167658152
C         4.38750042590619    4.35678099211271   -1.54581369324719
C         4.32153690175663    3.33430760959994   -2.50548864103458
H         4.75584950431356    3.46538869424466   -3.48297126783793
C         3.69998152685685    2.14947755973643   -2.19731563371291
H         3.65516368798646    1.36444273275734   -2.93798319522200
C         5.58380746297155    5.83086702689579   -2.98299457078522
H         6.40124375566066    5.13399794540123   -3.18901222921784
H         5.98493516199226    6.83855687380122   -2.89187682289307
H         4.86100901804038    5.80283955795875   -3.80375107428901
C         2.48819488375569    0.68184629957466   -0.64551932368974
H         2.43635687676603   -0.07856086799869   -1.42592025811355
C         1.04361845662189   -1.02561606273076    1.88231906316301
C         0.39961121592619   -2.29697916567526    2.25384433211940
C         0.02014886708875   -2.49426794913338    3.58138264771474
H         0.22117738295226   -1.71322175345747    4.30100300976984
C        -0.60009212276104   -3.66964271854241    3.95702317769567
H        -0.90188993142827   -3.82914715396956    4.98088130242641
C        -0.84313105002381   -4.64995007251405    3.00185539567054
C        -0.45630264636125   -4.46709581665624    1.67868075113730
H        -0.64627734039953   -5.24233337017102    0.95220466808556
C         0.16328999921562   -3.29081919083997    1.30546555868434
H         0.47181162698397   -3.12321361943548    0.28681597386171
C        -1.49951537110468   -5.93836567863923    3.41460396140909
C        -1.01170610405276    2.57465984719434    2.37896484601256
H        -0.40399806641342    2.64840292307881    3.28109410846404
H        -1.90467667913554    1.97328784108308    2.57446173936531
H        -1.30344584099441    3.57480463766767    2.04841819070940
F        -0.60324280794314   -6.84890961637438    3.84188475350077
F        -2.37435241972134   -5.77658250241195    4.41894571692414
F        -2.17493714938252   -6.52294715931215    2.41297481994025
H        -0.66530824869347    1.91688421223121    0.57072916146570

