49
CSD_code = ESODEW | q = 0 | S = 0 | Stoichiometry = C24H17NO5SiW | MND = 6
W         6.07035114879184    2.99288798655332    5.97227395290887
C         4.44091951650001    3.71675573312019    6.86870564639439
O         3.49249993542149    4.13186209687014    7.35557206707068
C         6.89098744703519    2.87810148896653    7.79637547884154
O         7.22027384245892    2.90786928013453    8.88993992456361
C         5.12362921127748    3.19918089962751    4.23106782737483
O         4.49320905662785    3.35276678107384    3.28625842138031
C         6.74522453184663    4.87134750600631    5.81754929450086
O         7.02543823982196    5.97648843916599    5.75330179540829
C         5.34193083250002    1.13989807318758    6.11706319731261
O         4.88822633834668    0.09084483407810    6.17754419236441
C         7.81813738670942    2.19641012978380    4.95845684552786
N         7.81372935889639    1.68891672255175    3.75444236227393
H         8.64816254616766    1.31974253403833    3.29866412416017
H         6.95628455433373    1.63257808681686    3.21400054942880
Si        9.55217196764735    2.25177822605158    5.77861861651452
C        10.84695378762964    1.56692336458940    4.56827443855137
C        10.71854317320166    0.25860690629738    4.10212432542673
H         9.91318102591187   -0.36054437551285    4.47533649639867
C        11.62023789997120   -0.27097928934981    3.19627516029231
H        11.50307226154593   -1.28729926732678    2.84854824077841
C        12.67490495251799    0.50162363275282    2.73989513016194
H        13.38079785830593    0.09160628825763    2.03277636524534
C        12.82559199875294    1.79860271645264    3.20184776159236
H        13.65344235753116    2.40114733922487    2.85725774572288
C        11.91894134487028    2.32375619185279    4.10512804566895
H        12.04580491611572    3.33430371974598    4.46462456168317
C         9.53855221744080    1.15412497180803    7.31862859860169
C        10.56104772932917    1.23870441932780    8.25883031192744
H        11.37271415868366    1.93400182462988    8.09705781206038
C        10.55182661459441    0.44778744972384    9.39321264867342
H        11.35030541522457    0.53190714176405   10.11633873850345
C         9.51806422583818   -0.44927456861846    9.60374688420659
H         9.50543966562999   -1.06305669935653   10.49248788432159
C         8.50195796041571   -0.55775398433698    8.66941895797856
H         7.69514828910570   -1.25916251214712    8.82524343845576
C         8.51589381238507    0.23614475038829    7.53724525028356
H         7.71803405498110    0.14620967687605    6.81173841131653
C         9.81929743137538    4.08912607107937    6.13939923621403
C         9.94593678124127    4.99362858550810    5.08715364917270
H         9.91423684721157    4.63240936502394    4.06792271006126
C        10.09987826912421    6.34671936744018    5.32445489456316
H        10.19427525156442    7.03311489253216    4.49540007748816
C        10.12016113141151    6.82269944351479    6.62473821149323
H        10.23166651759575    7.88041036401479    6.81269785057165
C         9.98908855951149    5.93819019394726    7.68154287271130
H         9.99732509755987    6.30485416352782    8.69778777258200
C         9.84159776854183    4.58430030220725    7.43897096577025
H         9.74040471049442    3.90203873614925    8.26996025549757

