63
CSD_code = ESODIZ | q = 1 | S = 0 | Stoichiometry = C30H26IrN6(1+) | MND = 6
Ir        6.05826479106446    4.81087078268432   13.19472512383969
N         7.55607275799363    5.37515100313619   12.03113610004558
N         8.77325445077615    5.37454694013724   12.57044908485138
N         4.86310740972226    4.77619168082847   11.51148175088914
C         6.82619893632556    3.13974776679402   12.21159363517152
C         7.92401020440788    2.40430013836505   12.59196160204724
H         8.54233244102817    2.72422066294804   13.41716701982719
C         8.27533515868848    1.25316908492187   11.88735694056186
C         9.45953040148328    0.44298250633927   12.29733950740724
H        10.04001867889489    0.14687036249888   11.42657138709216
H         9.12921270735052   -0.46692976208810   12.79814162828620
H        10.09923816181508    0.99711533962883   12.97786622041828
C         7.49408502114078    0.87059090054043   10.79990383812452
H         7.75619591569799   -0.02068470194377   10.25051374220280
C         6.40942053133630    1.62087507177869   10.40155255315427
H         5.83516958088521    1.31029166015781    9.54337723830914
C         6.05902011605358    2.78143843893977   11.09604523279834
C         4.99251376717959    3.69471617494916   10.71245014450104
C         4.18622457200249    3.54850835298222    9.58450989574867
H         4.28655820666306    2.67498980202670    8.96240658584979
C         3.26836601317588    4.53149046729359    9.26734621853592
H         2.63442091609739    4.42894556607464    8.40049335440724
C         3.19210891092204    5.66108928630393   10.06994336260673
H         2.51278327153944    6.46559849596672    9.84283150944220
C         4.00699455164994    5.73905777383739   11.18408119488774
H         3.96336662173378    6.60308689428647   11.82994693022845
C         7.62128659206020    5.80860633246892   10.74643753166622
H         6.76025525651820    5.87963275915631   10.11029250146431
C         8.92417645888279    6.15799980135177   10.48479622210170
H         9.32406307653440    6.56449888358209    9.57938212178383
C         9.60971018093950    5.85433319933574   11.67372999621425
H        10.65069010575765    5.96971666839414   11.90082510340368
N         4.56081522199727    5.37554843982029   14.35851773189208
N         3.34358810779814    5.37528883038765   13.81924005520306
C         2.50729557119027    5.85490173335716   14.71617272716316
C         3.19286099357091    6.15768239989989   15.90532686212751
C         4.49570695456819    5.80837617576737   15.64342309871946
H         5.35682351020280    5.87906537535798   16.27949530483913
H         2.79298229539073    6.56364801677881   16.81097358544309
H         1.46631942471195    5.97062700360454   14.48922614608430
N         7.25417822558439    4.77606615894208   14.87739611251777
C         7.12443827900288    3.69490807556258   15.67683691386815
C         6.05778704248099    2.78167052457097   15.29349303414961
C         5.29056418770612    3.13982160840803   14.17792589200139
C         4.19274299177782    2.40434654511158   13.79766427411127
H         3.57441123325960    2.72417818439879   12.97242485298038
C         3.84160250554849    1.25315117601636   14.50225215208436
C         2.65769215178968    0.44261597506288   14.09213835261605
H         2.07671798467553    0.14707285935418   14.96277769726454
H         2.98838924208256   -0.46763307916551   13.59219854860203
H         2.01833212240032    0.99620325818017   13.41084430713995
C         4.62285488820798    0.87073326711674   15.58976545029523
H         4.36090224854915   -0.02062490919054   16.13909629061089
C         5.70737151548904    1.62120984969135   15.98816864923688
H         6.28164709344574    1.31072433812463   16.84636024476241
C         7.93054789552492    3.54898905238739   16.80495087869795
H         7.83001170269872    2.67570488758189   17.42735698966545
C         8.84856488426891    4.53190846925260   17.12184343462873
H         9.48252439324601    4.42947429872021   17.98870015903572
C         8.92507172133718    5.66123884836419   16.31888894767959
H         9.60457003936299    6.46566928989680   16.54575124128754
C         8.11033691054713    5.73895397563737   15.20461547241334
H         8.15386289527311    6.60296103729690   14.55871931500064

