89
CSD_code = ESOGIE | q = 0 | S = 0 | Stoichiometry = C37H48N2SiZn | MND = 3
Zn       -0.62254945261143   14.13365280958208    6.42057636996159
Si        0.90470617166245   12.40437755879608    7.54317475113311
N         2.64631097265189   12.90349102456039    7.17870805475184
N         1.55718608358382   13.55096939929045    8.86811725129960
C         4.84758855055014   11.96573213884112    6.73128338632047
H         5.34490975704669   12.61414872250840    7.44884954795936
H         5.55429619514025   11.71906660432919    5.94327108785558
H         4.54021208847933   11.05251782421030    7.23076844752112
C        -0.02062649485565   10.32209509843815    9.31226319069006
H         0.28401631667127   10.77940491601724   10.24782427405027
H        -0.12726811526502    9.25083989564077    9.47858590974437
H        -0.98813670051444   10.72799770780317    9.03092667958117
C        -0.29517671222766   13.67577070326491   10.40994584831378
H        -0.98748054973705   13.50592248432049    9.58976544916245
H        -0.79044860714812   14.29768817480357   11.15088184004753
H        -0.05122245210111   12.72465056865473   10.87131492348186
C         0.47636872097495   15.36714659905313    5.18502046784182
C         2.67324805350877   13.76281184537019    8.17955415626985
C         4.05149986007933   13.95853725510931    5.43040769370693
H         3.18140194522488   14.55190985455691    5.16235487293302
H         4.58768311620000   13.70919196798494    4.51815210130721
H         4.70979602789834   14.55478533922395    6.05571976531392
C         3.62171609939819   12.66516822796401    6.13252104609548
C         3.71903755952849   14.75843653289845    8.46034169832132
C         1.88191772092174    8.88508708307587    6.85167879043927
C         5.70045121152297   16.62926702464784    8.99661149447732
H         6.46984697624441   17.35697257670205    9.20607354627255
C         1.93506051892236   14.54696113198936   11.09601586640832
H         2.29201122360485   13.57982418892704   11.44310265509436
H         1.41440914829000   15.03332585074154   11.91691749626479
H         2.79076216340198   15.15853208691627   10.82456835717201
C         3.67902518896649   16.01209122270019    7.85655984010016
H         2.88654383597237   16.24683946784074    7.16054557927855
C         0.87858979360646   16.64825026239172    5.57574891983331
H         0.53817003277734   17.04745861280404    6.52685799126776
C         1.03164706415955   10.56250554793052    8.22818462897575
C         0.80041154255582    9.66923629922910    7.04097498822265
C         0.97115467181988   14.37360846945787    9.91338076626190
C         5.74867832803991   15.37936470342048    9.59077859006832
H         6.55575000641768   15.12933953025230   10.26318501541366
C        -2.48986072960552   14.13079184601468    7.27528410384660
C         4.76182968353873   14.44582629899608    9.32694214527448
H         4.79233625224998   13.47323598079696    9.79603740602604
C         1.73053830506873   15.74645049166756    3.12242221041618
H         2.05334297448498   15.38285310810708    2.15552052795093
C         2.12507611083774   16.99966398544829    3.55553947368785
H         2.75793408306605   17.62061637214536    2.93653477944163
C         1.68951846188813   17.45105778376048    4.78832329239642
H         1.97889441474816   18.43471050317488    5.13687705224511
C         2.86555112940317    9.17059265606350    7.88684261487416
C         2.11692446041714    7.86067031397283    5.79211863516157
H         1.26398685614605    7.78189320628418    5.12403560330229
H         2.29910782849013    6.88490827126582    6.24207491997281
H         2.99342217025349    8.12190136571779    5.19861230370765
C         4.15785366719269    8.42943330292936    7.98684137588567
H         3.97060148364657    7.38427825258353    8.23489459183426
H         4.79731493884680    8.85060019880360    8.75869512941199
H         4.69150249174605    8.45252785802427    7.03661453905935
C        -3.01291323908926   12.95385231753577    7.81845162407243
H        -2.45686069876487   12.02840175797798    7.70427378934686
C         3.02281124421404   10.69277148328897    9.92928573895956
H         2.66852701307860   11.70237795957567   10.11645684271232
H         4.10803112353836   10.71391459352731    9.83823615578893
H         2.77597190609086   10.07661095386045   10.79666051770897
C        -4.22023007482539   12.91447262452135    8.49569742112033
H        -4.58687566316254   11.97816076638329    8.89676305794095
C         0.92697677386478   14.95410954846313    3.92723507669511
H         0.63772828362831   13.97624655968906    3.55470649265909
C         2.95299762288736   11.75113516418501    5.10725074959772
H         2.58636319221798   10.84960650223780    5.58739848077915
H         3.66470431174958   11.47511254034066    4.33384152554673
H         2.11761820166662   12.26771306591614    4.64297134093343
C         4.66625035064318   16.94210849420370    8.12983385859207
H         4.62802803569441   17.91247758976590    7.65846384575923
C         0.58379230262691   15.74915817577002    9.35769191068174
H         1.46363759151819   16.30640837427986    9.04719913455154
H         0.06444984046777   16.32324459615402   10.12098498413084
H        -0.08571329622102   15.62852059488830    8.50244827716285
C         2.39027433533083   10.13972401877206    8.69692094156644
C        -0.45867607564045    9.71123639599891    6.24740695819759
H        -0.45809253120533   10.55672978077330    5.55607375468487
H        -1.32065567522530    9.82148646738800    6.90140143800676
H        -0.58499944957449    8.79892230625688    5.66976640559849
C        -4.95762739301018   14.07328932676362    8.66046500468811
H        -5.90022176661642   14.05173209261602    9.19011582222956
C        -3.26708542378145   15.27836780346433    7.45617736920152
H        -2.92220956900715   16.22228985055002    7.04953455340586
C        -4.47490321442407   15.25827449540782    8.13524838866721
H        -5.04327050597137   16.17165468472190    8.25361449874804

