44
CSD_code = ESOJIG | q = 0 | S = 0 | Stoichiometry = C19H17AuN5PS | MND = 2
Au        5.39101625248956    8.74849148512339    4.77301071982996
S         6.86028646987475    8.10620435332183    6.45507367728694
P         4.02805262462446    9.32704489551956    3.06253945579545
C         6.94455621622198    9.46060914125613    7.53796333766786
N         7.76692729401080    9.30971196404858    8.57129395746079
C         7.88625740597774   10.29405537075505    9.43891805000812
H         8.57130439650828   10.10360662029234   10.25632374046328
C         7.20166549679647   11.49460431850372    9.34427254303628
H         7.33195350368570   12.27239950970819   10.08066619663490
C         6.34045368257912   11.65851399182186    8.26621239696553
H         5.77875792074143   12.57509861684023    8.14177965142060
C         6.20635314396420   10.63687563457202    7.35176919216833
H         5.54187867934986   10.72953767535290    6.50087507385436
C         2.48394664865431    8.41266414200325    2.86908685011772
C         1.96090139524789    7.79078695734559    3.99621240001961
H         2.50055389349478    7.85962311278335    4.93238948055409
C         0.77345055610508    7.08714467047867    3.90586087523988
H         0.36400438400352    6.60288509022732    4.77989286829964
C         0.11446424804421    7.00070759390146    2.68986140820787
H        -0.81105094952058    6.44898700959122    2.61722882488799
C         0.64065662045271    7.61559426498670    1.56345565035206
H         0.12409405137576    7.54152574839944    0.61752876473925
C         1.82442263484650    8.32488890392701    1.64761365601478
H         2.24491246661764    8.80746374656820    0.77632607354890
C         3.54184636875558   11.07441311285917    2.98609079248792
C         2.23472326780932   11.52221968212543    2.84338472488223
H         1.42869128019058   10.81031789412786    2.73598336502428
C         1.97490465352774   12.88196214014139    2.83836468564919
H         0.95985060859583   13.23211001018718    2.72227487120515
C         3.00840051127606   13.79227329094342    2.98665311271638
H         2.79788354669338   14.85118920209263    2.98325395889132
C         4.31164371140434   13.34778316576623    3.15145721057224
H         5.11521212626087   14.05725624062339    3.28178031818114
C         4.57626068392944   11.99218522166644    3.16034366124999
H         5.58599406361557   11.62668010518793    3.31191899646235
N         4.72927523855174    9.17581670078843    1.52486730616281
H         5.23711734547574    9.94489466000624    1.10308859574417
C         5.33247376209746    7.94620004223190    1.44820295270775
N         6.21407365680089    7.51584600558593    0.52600418797647
C         6.45383577869113    6.28043029528375    0.90217083935226
H         7.12241415620893    5.60709640308623    0.40747534864663
N         5.74199135251301    5.97337338212582    1.99601734059722
H         5.72486156572958    5.13214207999768    2.55077821718730
N         5.01812728572173    7.04718554783192    2.36313466974017

