109
CSD_code = ESOKEE | q = 0 | S = 0 | Stoichiometry = C52H52Br2N2Ni | MND = 4
Br       -0.59056498116839    5.11536777712658    1.93882154887921
Br       -3.66662929942240    5.16599915214960    3.06970501924754
Ni       -2.59108686176331    4.39626680196825    1.29735960904105
N        -2.23941160343592    4.34385130660993   -0.65150231373433
N        -3.83304607301569    2.86227636452379    0.86725162167564
C        -2.96892227098686    3.45876254487123   -1.22360220239529
C        -3.80183410951607    2.61686628106529   -0.38961255968907
C        -4.50649405495657    1.53713397602310   -1.16973281411310
C        -3.41498236660303    0.85061290436755   -1.95502011658328
C        -3.11248631449447   -0.49492247590576   -1.89717025832921
C        -2.07115356917370   -0.98561858730063   -2.67179501171704
C        -1.34502249234893   -0.13894121059302   -3.49155054046974
C        -1.64248746562971    1.21511081073040   -3.54637170638889
C        -2.67803735351928    1.70450864668694   -2.77608814636761
C        -3.10926028356906    3.14996255850513   -2.69176162472153
C        -4.59464279212672    3.18614835820199   -2.95797624833170
C        -5.22110351487371    3.99278892931897   -3.88658229320282
C        -6.60094923916520    3.92637765185092   -4.01492041398807
C        -7.33972460721656    3.06433764297818   -3.22279719774810
C        -6.71286109923056    2.25641148700973   -2.28515246624429
C        -5.33982878315386    2.32028787858422   -2.15723179958597
C        -1.38066186557487    5.18661092290382   -1.36018568117617
C        -0.34152208157099    4.62064047234943   -2.09600392745884
C         0.58988231184973    5.42301981072502   -2.71992689990023
C         0.50163330675326    6.80493760988023   -2.61746227128755
C        -0.54437273303917    7.35621963816699   -1.88906746464012
C        -1.50790843745126    6.58094001793408   -1.26210588580856
C         1.53009145123181    7.69102533471129   -3.24691670654218
H         2.30347536276028    7.92944617582773   -2.51641803950326
H         1.08493010023901    8.62597514369006   -3.57936027792940
H         2.00449447267151    7.19968009487252   -4.09332640355760
C        -2.62163079913519    7.20373555013778   -0.44700545558799
C        -4.02669637462288    6.62704639485283   -0.73897590779370
H        -4.77315426975845    7.40520862173016   -0.59757916334137
H        -4.27631942871762    5.82251485420650   -0.03934071347582
H        -4.11910424376207    6.23800641845944   -1.75123236817187
C        -2.63555335567694    8.71611662389946   -0.53056824383163
C        -3.02944082611258    9.37468579931799   -1.69902599880160
C        -3.06530096932909   10.76307821082247   -1.72643628325226
C        -2.71703214987491   11.52136245750647   -0.62306159521180
C        -2.31451595358746   10.85545157984146    0.52448194337567
C        -2.26487016957401    9.47102135097501    0.59021130353799
C        -3.42519652141536    8.64854432043762   -2.95505088106346
H        -2.85997805560747    7.73038507563845   -3.08821066631352
H        -3.25110525527897    9.28538555362534   -3.82045453244963
H        -4.48723591344561    8.40341253627005   -2.93360093448088
C        -2.76776813697489   13.01889217812967   -0.65410043484579
H        -2.99194591482367   13.38175908751901   -1.65426669434952
H        -1.81575097697077   13.43948007360750   -0.33367702442522
H        -3.53744880705575   13.38293931412387    0.02613730031736
C        -1.80714020109447    8.83561298799962    1.87013041012620
H        -2.59239769364924    8.22538526240168    2.31610545459037
H        -1.53903185780040    9.60262423119280    2.59187998439499
H        -0.93308302734483    8.20531067270917    1.71095288537894
C        -4.60754363572020    2.13503966091749    1.77062891373912
C        -5.99110160718230    2.10387273777548    1.60693538462412
C        -6.79127071400566    1.49171016052664    2.54801801601616
C        -6.22484725384617    0.90341164251402    3.67123610785764
C        -4.84414121335353    0.93261928462163    3.81730384707289
C        -4.00756372633269    1.52317601681080    2.88271587592728
C        -7.08197835273488    0.27850475499528    4.72673567586245
H        -7.30397756020838    1.01387015225674    5.50044148661508
H        -6.56988587054923   -0.55758749781618    5.19723623209839
H        -8.02489348180538   -0.06814010929380    4.30985937935948
C        -2.50589059909194    1.56314610049553    3.07018668698835
C        -1.69815568103253    1.15409261163818    1.81604349148109
H        -0.77925141189785    0.65953277702014    2.12187618681076
H        -1.40399819617296    2.03313935966231    1.23479133921861
H        -2.25153018407361    0.48281466004883    1.16184981668581
C        -2.04248834658510    0.78324143531166    4.28339698138149
C        -1.54702538966113    1.47298784269453    5.39804148658557
C        -1.08515079622991    0.75652288455448    6.49204474228147
H        -0.69996134939745    1.29341896452842    7.34742052928713
C        -1.10289439300490   -0.62950066953040    6.52159833719610
C        -1.61056025661114   -1.29638925236117    5.42109317489467
C        -2.08008017135964   -0.61406499324345    4.30575838829720
C        -1.49740382045828    2.97130768707825    5.45743604664172
H        -1.12079265191687    3.29394736976239    6.42442137734635
H        -2.48567597104439    3.40827366126193    5.32077587047630
H        -0.83417821919928    3.37820959323309    4.69428326350102
C        -0.59396990534679   -1.37040858835377    7.72107573658923
H         0.43923089497114   -1.09413956584297    7.92662000507623
H        -0.64248245824224   -2.44549033637950    7.56587763190924
H        -1.18587612588841   -1.11926831522960    8.60063981294182
C        -2.60941225459852   -1.43848346927032    3.16483839588802
H        -3.43153756979179   -0.94521882157438    2.65406018140391
H        -2.96416791649540   -2.39829066374037    3.53598243318165
H        -1.81909834001502   -1.63614632427400    2.44045947201984
H        -5.08600637387356    0.85613539634747   -0.54666227820675
H        -7.86321154121077    1.48811560065881    2.41603241794851
H        -2.39725574788195    6.94277352447577    0.59716895488787
H        -6.43046828674401    2.61548671584712    0.76125364231954
H        -2.26463707245064    2.61955367505480    3.25475650308882
H        -7.10014537580125    4.55381217998025   -4.73742850463180
H        -0.60615696165622    8.43033937592994   -1.80133353088313
H        -4.40463183172412    0.48444690363598    4.69551376222341
H        -2.53670924351748    3.81835530502242   -3.33472748584594
H        -8.41272452961316    3.02139329224371   -3.33121606579347
H        -0.24716689147823    3.54353793236998   -2.12528205110207
H         1.39839436945745    4.96981730703388   -3.27424984710661
H        -3.67851599864636   -1.15519971782664   -1.25617184966971
H        -7.28923340618027    1.58597491192327   -1.66436328676211
H        -4.64341787355081    4.66649674442809   -4.50280584148270
H        -1.64487051841007   -2.37752747174696    5.42464049531991
H        -0.53777270425653   -0.53184246889427   -4.09061773846168
H        -1.07377333476629    1.87786529044570   -4.18227714564799
H        -3.37244498022556   11.25964198024950   -2.63695197790253
H        -2.03011012040350   11.43370702806248    1.39222830468422
H        -1.82639889903067   -2.03603743138934   -2.63179769594145

