20
CSD_code = ESOLEE | q = -1 | S = 0 | Stoichiometry = C6H8Cl3N2Zn(1-) | MND = 4
Zn        3.02830508383000   10.75809810455227    2.74156274451390
Cl        5.07142802910689    9.76783181431550    2.93441838990841
Cl        1.32168866159971    9.18823317625218    2.98682413702609
Cl        2.76396027485242   12.50539171353441    1.31862922647031
N         3.10358927738013   11.69655789411935    4.68560112173376
N         2.58838159274931    9.74416172716146    5.76728127096399
H         2.18371460378586    9.45342619769300    4.87418674125786
C         3.58933041636144   12.93316450841224    4.69932776663514
H         3.50421058022490   13.47025164579338    3.76492426357638
C         4.16938146050952   13.51028279052533    5.80776557651832
H         4.54723697271041   14.51900640712449    5.76696408757299
C         4.27404233042711   12.74176000166439    6.96540516986769
H         4.74557615773904   13.14703511257274    7.85090886773452
C         3.77310344306153   11.46513840432240    6.97383144408482
H         3.84426481558550   10.84903373045025    7.85552028791033
C         3.16254885627567   10.95100270796336    5.80643862655682
C         2.67911602028531    8.75983790930232    6.80842060726098
H         3.71939151036191    8.48820207567047    7.01658036949041
H         2.14780489956065    7.87088602561874    6.47936147046821
H         2.21802501359333    9.11949805295483    7.73494783045028

