94
CSD_code = ESOLUT | q = 1 | S = 0 | Stoichiometry = C46H44ClP2Ru(1+) | MND = 9
Ru        3.46845218379140    3.30351452696013    6.60440945600472
Cl        3.17199859776453    4.51901036426229    8.60246705003076
P         1.20102743253079    3.76977457191190    6.40064237563659
P         4.28906429193727    5.31408291981287    5.73763631931222
C         0.64665809547454    5.44721438164254    5.96464073425554
C         0.14400229560555    5.78156724052965    4.71124490066002
H         0.06420454313071    5.03157171411245    3.93659104535127
C        -0.28987486577303    7.07313793037618    4.46606092289016
H        -0.68082113728424    7.32852130331595    3.49254851890133
C        -0.24257625933650    8.02753290049908    5.46790276935265
H        -0.59592781174774    9.02874136355044    5.27536172650724
C         0.24434100305188    7.69333648614624    6.72165019898603
H         0.26709068778369    8.43145136181707    7.50818254735088
C         0.69931171234597    6.41292418148733    6.96936620735809
H         1.08204696949902    6.14522500406101    7.94452666469935
C         0.16068308440873    3.43932771859369    7.85910020426251
C         0.61662955565487    2.66698493853017    8.91985443035811
H         1.63513852552951    2.30513879963662    8.92222298629679
C        -0.21401683812305    2.39367578590117    9.99219989956378
H         0.15140026985462    1.80183114241467   10.81787759006551
C        -1.50831018433722    2.88443783124050   10.00950351635476
H        -2.15503274871929    2.67400876731307   10.84728889312528
C        -1.97137117701212    3.65181944167876    8.95183020834689
H        -2.97968334498583    4.03699803348179    8.96320345857406
C        -1.14531634394998    3.93004088780830    7.87942626915693
H        -1.50854331711846    4.52960262663930    7.05608980380849
C         0.44516259075074    2.71713921210979    5.11812640932683
C        -0.68322405050588    1.93620631023608    5.34120887699691
H        -1.15474012181390    1.92376962329366    6.31254742241047
C        -1.20627014532499    1.16882701008489    4.31341912999395
H        -2.08294104841869    0.56547177444388    4.49337491024543
C        -0.61435186873499    1.17380609098901    3.06155926156890
H        -1.03068491048229    0.57849331351445    2.26369745344098
C         0.51987429143934    1.93939325106650    2.83779450923595
H         0.98919082530274    1.94250762123773    1.86462809175715
C         1.05190705759587    2.69831899546786    3.86306998605657
H         1.95155070993682    3.27928349726629    3.70569442260168
C         3.61126211709207    7.00217397116896    5.93142522238340
C         3.27081130522567    7.83255335699220    4.86943382133731
H         3.29833940768486    7.47591231766602    3.85161739290577
C         2.91228480778997    9.14805946322054    5.10898147816927
H         2.65130225442595    9.78463172059595    4.27695639239529
C         2.90435031090998    9.65165795399431    6.39762153355811
H         2.63291757020065   10.68120748776314    6.57410334293443
C         3.26132702968075    8.83292714605565    7.45699389814373
H         3.27312459895652    9.22117867186473    8.46402631177124
C         3.61562950004061    7.51807993960077    7.22785627483608
H         3.90142752900503    6.88380719871790    8.05391908894651
C         5.95493407501831    5.71463214064907    6.36025450040214
C         6.39587505301743    5.24135051606574    7.58970166310004
H         5.75135463781828    4.60528348310373    8.18019133581855
C         7.63454311563582    5.62143838438621    8.07756220902963
H         7.97041400476692    5.25271411164071    9.03523120717240
C         8.43373558066807    6.48298690917436    7.34610631734032
H         9.40101818004922    6.77612898725314    7.72413824642638
C         7.98048534506811    6.98942404448618    6.13713999445358
H         8.59049854460748    7.68313322867985    5.57870636061330
C         6.74245638076741    6.61946646290071    5.64836345010764
H         6.37753497190900    7.03698319865167    4.71990903037067
C         4.49433652802861    5.10711522956451    3.94294431264114
C         3.35055355284792    5.20506097326310    3.15051481872569
H         2.40717830886332    5.44427919418378    3.62390233094996
C         3.42632834159168    5.01795763899350    1.78230626665495
H         2.53668493371686    5.10684217644925    1.17691652246574
C         4.64455549950153    4.72192990589696    1.19041730791653
H         4.70795456134945    4.58236739381627    0.12243986788957
C         5.78159725796024    4.60335079961190    1.97345662328988
H         6.73037902057969    4.36683471075531    1.51574030547212
C         5.70963928826427    4.78637758715439    3.34480489408336
H         6.60425225235179    4.69398731546875    3.94459991962475
C         4.40958049438477    1.45483565634530    7.90789765408851
C         5.41898670533315    2.10130060869034    7.16289585204415
H         6.34116917734472    2.39564438708515    7.64682156619224
C         5.31751528618448    2.22837965783523    5.76406606473957
H         6.16814441435318    2.61394161157875    5.20918958304696
C         4.23180236490486    1.66743555517722    5.04760799670449
C         3.17768038862398    1.13151906327209    5.80756628293718
H         2.34433465672392    0.65637372382339    5.29936847432954
C         3.26425663847161    1.02349214988490    7.21531145337965
H         2.49480478279511    0.46819530844994    7.74113763521579
C         4.59265123429541    1.08957908952601    9.35987044062125
H         3.60215434585086    0.93864956349132    9.80484150323714
C         5.32742163847182    2.14641280969424   10.18253841685713
H         5.31348343855744    1.85918013040363   11.23047278060903
H         4.83740352427997    3.11331872102165   10.09007079485492
H         6.36716310488829    2.23860013486323    9.87702840866992
C         5.34497440508367   -0.24832709004097    9.40039445345783
H         4.80376996439602   -1.01877176409434    8.85450719885736
H         5.45901622301554   -0.57174957951370   10.43127234679082
H         6.33499122281351   -0.14347035066316    8.96093616782239
C         4.29034206951885    1.50060558436373    3.56029023993876
H         4.98596830420997    0.69225778056817    3.32737771741202
H         4.65219185802729    2.40027038564213    3.06715871895143
H         3.31665934249993    1.23630431963211    3.15584683635140

