97
CSD_code = ESOMAB | q = 1 | S = 0 | Stoichiometry = C49H42CuN2P2S(1+) | MND = 4
Cu        4.38814001442312    3.33533212753590    1.65097792768159
S         3.03550684122973    2.29175504169071    4.37937967867321
N         6.12067058040576    2.73000612143460    0.71393616995577
N         5.61955085995785    3.12973977462758    3.31802565784952
C         6.30438600597938    2.44874433150429   -0.56520454163435
H         5.54249451600393    2.80740245037425   -1.24441821685430
C         7.41136397873408    1.75603812485416   -1.02643918096077
H         7.52758368114505    1.55600939168776   -2.07907706487411
C         8.36817671942533    1.33965855275757   -0.10723879376744
H         9.24195143150593    0.79676110517774   -0.43301557834239
C         8.18727485186012    1.64255006161829    1.22883411024268
H         8.90782711108566    1.34202476481432    1.97326397658219
C         7.04181921370103    2.34436509338948    1.61098088400680
C         6.78895697960945    2.73014431458839    2.97898192895501
H         7.61500963164843    2.66239950851114    3.68623573604710
C         5.35516558061521    3.68455499147984    4.55514433578299
C         6.25830017292438    4.56035683764556    5.16285574410861
H         7.19190398186521    4.77587654325982    4.66460116584371
C         5.93907350318908    5.19170437357222    6.34655686933165
H         6.63780380410072    5.88036793255622    6.79416889448242
C         4.71890696995764    4.93712891136554    6.95447139880832
H         4.46546624207188    5.42120742049380    7.88471873367147
C         3.81693303616842    4.06312085770596    6.37584903557506
H         2.87774878267839    3.87377922490877    6.86883682956069
C         4.11231534575433    3.44097923259121    5.16924004410218
C         1.43981853722434    2.58472671099898    5.19052142042967
H         1.46886776431678    2.23586921032138    6.21821501360141
H         1.18423268996380    3.63809935231796    5.12836726257714
H         0.72048828441179    1.99882077320718    4.62679361184844
P         2.88628435827066    1.79389685302629    0.89707007928456
C         3.24160230682695    0.05658480783555    1.29431142116099
C         2.58879877559644   -0.99867256795899    0.65977427576240
H         1.84840142248984   -0.79678864721338   -0.10253622634053
C         2.89982070358016   -2.30181848449997    1.00055147050002
H         2.39175392177003   -3.11948208632420    0.51152803722418
C         3.86133304062625   -2.56085877433374    1.96554930600574
H         4.09986963921578   -3.58070894166439    2.22631206636765
C         4.51818540594586   -1.51398127661358    2.59109432482253
H         5.26947002947977   -1.71652982395639    3.33977322712493
C         4.21138076526829   -0.20763871832147    2.25517304510100
H         4.71377429168184    0.62081689153691    2.73668749064538
C         2.59155131610030    1.70312478151911   -0.90084761547487
C         1.56669540419706    2.41314439508700   -1.51847147135047
H         0.85899516077484    2.97166961844706   -0.92208880497553
C         1.44593648000184    2.39479857588064   -2.89704164516580
H         0.64252111643542    2.93971201377052   -3.36972102928286
C         2.34772791615607    1.68030492988581   -3.66818004494743
H         2.24905146478372    1.66698478712902   -4.74284615462488
C         3.37608796033335    0.97892496896067   -3.05772838958651
H         4.07842607643740    0.41825780417488   -3.65644050459178
C         3.50318835787506    0.99383116243227   -1.68182057836658
H         4.30172342625351    0.44319230728540   -1.20115221267859
C         1.21396816350025    2.08815432579590    1.55269326358346
C         0.81670317888484    3.42085227832533    1.63222516654961
H         1.50692196508832    4.19528073464741    1.31537842375113
C        -0.43394378353662    3.75165567750605    2.11657097065286
H        -0.73234155377880    4.78800470831554    2.17407843856614
C        -1.29659063924128    2.74867950610018    2.53140645301592
H        -2.27526961864892    3.00058531745313    2.91041116356809
C        -0.90019955773732    1.42215822321490    2.46728176661981
H        -1.57089762057814    0.64292711792305    2.79776782632435
C         0.35348550891537    1.08610504083173    1.98362940190776
H         0.66070637363294    0.05111703154944    1.95071173930879
P         3.98587457043951    5.57786491887227    1.71177594137540
C         2.51911173189070    6.36718412722408    2.44470732584948
C         1.57208291552497    7.05360173807759    1.69242746803217
H         1.71868577772877    7.19284322273042    0.63064921783640
C         0.44168754717781    7.56215761374562    2.30884664907895
H        -0.28790614528898    8.10219761851904    1.72399104561714
C         0.24361692912463    7.38213576540744    3.66795555570066
H        -0.63892821896660    7.78262425820214    4.14306258994497
C         1.17796257995839    6.68392596187053    4.41760336904486
H         1.02476290697565    6.54288471859945    5.47776953341888
C         2.30668717673785    6.17059194591172    3.80831523021435
H         3.04118806532412    5.62114099078039    4.38180478419906
C         3.99218279696006    6.19629885535014    0.00165695698480
C         4.32926072855826    7.50943740978864   -0.31430321163884
H         4.60045162873024    8.20020216888276    0.47222085951991
C         4.31457302323452    7.91981876273387   -1.63465191754095
H         4.57514098965107    8.93780916323245   -1.88221670675037
C         3.96555036646984    7.03060567885945   -2.64032865685833
H         3.95604120566464    7.35933924780702   -3.66830684079839
C         3.63165184716461    5.72249943483108   -2.32870237582949
H         3.35963568402379    5.02670210567090   -3.10895415999632
C         3.64901647549841    5.30621133725114   -1.01020253408545
H         3.39488086791896    4.28482199705779   -0.74948532568371
C         5.39024764535385    6.48475439901028    2.43210362202445
C         5.29538635433455    7.44305804355885    3.43257050449284
H         4.32972588825985    7.74090932607674    3.81470236308235
C         6.44674370800843    8.02581456875681    3.93485326668356
H         6.37099408665887    8.77424434041088    4.70928689537126
C         7.68927034814130    7.65785634811525    3.44745163686084
H         8.58240543564574    8.11614446335981    3.84408202748214
C         7.78706488747495    6.70184839246148    2.44698633808663
H         8.75558221508006    6.41670208624374    2.06258180798641
C         6.64305073508154    6.11366379685333    1.94559816943807
H         6.70215837683934    5.36199751916737    1.16678083687775

