57
CSD_code = ESOMEF | q = 1 | S = 0 | Stoichiometry = C26H24CuN4S2(1+) | MND = 4
Cu        1.23476783018870    2.35415273695759    3.23323294206559
S         2.02435238274570    2.41976135770279    6.09212618813321
S         4.55097335842444    2.40799072752102    3.20970483012375
C        -0.93711624183616    1.76557131130402    1.13855987714480
H        -0.89457776030860    2.82418977041130    0.92136397363629
C        -1.83690425079526    0.93531334412815    0.48834433836262
H        -2.51294777313289    1.33579396213465   -0.24925965391238
C        -1.84703416941249   -0.41693731515890    0.80982578607382
H        -2.53533096635041   -1.09075389610416    0.32337940514879
C        -0.96144885864467   -0.88415354603932    1.76279321011950
H        -0.93772500588205   -1.92665656914449    2.03882512392792
C        -0.08652415381812    0.02010665948826    2.37082024320559
C         0.86993864572607   -0.38369574345088    3.37174610543370
H         0.88756865272672   -1.43248551860459    3.66286561579843
C         2.67091517284362    0.13935096593498    4.76095468564333
C         3.42231781182405   -1.02507817028668    4.56169474342027
H         3.16551795061554   -1.68264329781771    3.74448012686000
C         4.51286083976378   -1.30565122736127    5.35691637786036
H         5.08647769308292   -2.20318117307884    5.18526345215452
C         4.87593650957739   -0.43013973434778    6.37215108353549
H         5.72766795696882   -0.64863990834806    6.99727228563793
C         4.14367645828280    0.72120512255417    6.58979095461651
H         4.42162764468673    1.38804428297231    7.38967692946320
C         3.04692773225184    1.01655617543226    5.79243039296174
C         3.24366458398824    3.67664498972912    6.58723827015383
H         2.74398034353485    4.63409082033015    6.47882230129144
H         4.09637835635829    3.62102265127099    5.91908938816581
H         3.53742656331812    3.53615202666766    7.62255797999990
C        -0.79869440143775    3.91350915210029    4.97920939916328
H        -1.14534431107334    2.94085398455329    5.29769952729546
C        -1.32933299812218    5.07868013933058    5.51317390592241
H        -2.10747403769444    5.03093676707366    6.25717787969061
C        -0.83962436157415    6.29998246511009    5.06763939827163
H        -1.23010645906342    7.22516318673650    5.46274913406180
C         0.15707383206628    6.31157471888993    4.10855957909164
H         0.56669893760946    7.23865357691533    3.73909167767990
C         0.63711680040941    5.09258173610491    3.62602701710847
C         1.67946579162953    5.00374940913703    2.63002257494128
H         2.00939913603620    5.91927039131166    2.14174826248710
C         3.11060451753193    3.69502794144395    1.33267309389393
C         2.87136616167005    4.22563840884765    0.06486922386471
H         1.97309730021310    4.80348469043023   -0.09708000541128
C         3.73985947661035    3.96973960485227   -0.97703431753293
H         3.53814492599667    4.37090602926574   -1.95751414588130
C         4.86923062567404    3.19595903969923   -0.75759687965022
H         5.55226160422434    2.99379166689048   -1.56764118266638
C         5.13623286256098    2.68370065584944    0.49935057780070
H         6.02998976674912    2.10139242754836    0.65114272633670
C         4.26363008203685    2.92141185323318    1.55137943035781
C         5.90078083209894    1.20381285183885    3.05730705578642
H         6.01148942454997    0.76381716515528    4.04364831354870
H         6.82058138987084    1.70681807659092    2.77495630590644
H         5.62963784947115    0.43636484680677    2.33925467341694
N        -0.08908931453119    1.32345346294509    2.05006570204826
N         1.64887326374218    0.49060503677774    3.90160088681461
N         0.15263002345626    3.92048382703888    4.06378643796712
N         2.19923397256395    3.86220608272779    2.36246679065513

