86
CSD_code = ESONIJ | q = 0 | S = 0 | Stoichiometry = C38H38CoN5O4 | MND = 6
Co        0.49702075265773    2.14247365843217    3.75315886390369
N        -0.48731165350153    2.43631649338819    5.32148294564938
N        -0.96376719341516    3.02139677882697    2.96897236652551
N         1.40698514244015    1.69577879161084    2.16234248294324
N         1.97670108732988    1.29612323305745    4.54682011065847
N        -0.51650079923978    0.28377367981548    3.60544469674285
O        -0.10070414081762    2.02956162366033    6.48221044496400
O        -1.10319195151132    3.28392044195591    1.64456660692686
H        -0.26946642267048    2.83760977163723    1.20955151263905
O         0.94719972693368    1.97670896007332    0.99440788520172
O         2.14542162476363    1.06908351111897    5.87364986695716
H         1.29778580827489    1.48376484208719    6.30570378193366
C        -2.92120692268208    2.13899950860741    7.14607373704385
H        -2.40752258926848    1.19297378011338    7.06694590375183
C        -3.83559143287822    2.34836469702325    8.16159792212793
H        -4.03399762050764    1.56086312881648    8.87397651066144
C        -4.49489824198652    3.56105144725416    8.26683778516731
H        -5.20917411916326    3.72250267379953    9.06077413080090
C        -4.22988018422090    4.57002224656336    7.35518184716693
H        -4.73399952767704    5.52160364797441    7.43917709262204
C        -3.31772001036513    4.36728963057559    6.33789401406485
H        -3.10275584017015    5.16188249826776    5.63890429346036
C        -2.65949997811222    3.14427692601981    6.21923142787896
C        -1.68637168568039    2.92744653216551    5.13813862180362
C        -1.95117113003745    3.28147319763839    3.76542946074423
C        -3.23964716954137    3.83438027949131    3.32360895337020
C        -4.42855374965009    3.21107101090611    3.69612206248387
H        -4.39776975980917    2.31552578744613    4.29959526303721
C        -5.64160938217986    3.72909525746136    3.28500510693153
H        -6.55917083161571    3.23977492267835    3.57698050200426
C        -5.68211021821176    4.87219545621867    2.50328696911152
H        -6.63213342211586    5.27780295003994    2.18812747290425
C        -4.50274686763120    5.48995007407573    2.12307119461319
H        -4.53069173232125    6.37842191158182    1.50986440766088
C        -3.28518684576892    4.97283728703683    2.52484012665687
H        -2.36591453433685    5.45349018588232    2.22883618321516
C         2.88543534684607    0.01872753331186    0.09262815595040
H         1.82245661808533   -0.15296504878147    0.02022278006731
C         3.72117093702410   -0.36508102485589   -0.93957967874462
H         3.30533235417192   -0.83881638495183   -1.81689834041770
C         5.08490069404849   -0.14416870802782   -0.85159649767942
H         5.73624834571108   -0.44546190067958   -1.65879199738645
C         5.61097727811804    0.47257107380164    0.27198769128899
H         6.67307117573019    0.65716630092264    0.34080552911391
C         4.78134214180109    0.85851328742931    1.30658762344719
H         5.19390721469279    1.35373346798235    2.17306689217698
C         3.40885012111624    0.62669108758113    1.23056215350779
C         2.52670862018552    1.04375713383859    2.32979994368945
C         2.84043683599312    0.80022529219796    3.71818203085036
C         4.00626878834653    0.00506350671094    4.13260132499674
C         4.86475435893905    0.47095527769283    5.12403886253102
H         4.67220795617114    1.42348927078044    5.59280088373614
C         5.96451549857226   -0.27867652674207    5.49780245380999
H         6.63055387826808    0.09313847383757    6.26222061612387
C         6.21172654446072   -1.50123402935112    4.89669671552305
H         7.07118815150489   -2.08539370316850    5.19068591344198
C         5.35167457626171   -1.97658098444789    3.92010211390593
H         5.53706144282294   -2.93317365164537    3.45413870446227
C         4.25498535072676   -1.22911243561851    3.53626055474420
H         3.58131820607181   -1.60352581814353    2.77940394665305
C        -1.12533421151958   -0.06386900508347    2.47397437070374
H        -1.04919890431623    0.62154268996064    1.64099571353593
C        -1.82539010796917   -1.24941666428920    2.33091745527204
H        -2.30137524477196   -1.48103408608884    1.39135471811070
C        -1.90011093864284   -2.11806720494021    3.40750489554670
H        -2.43916583089358   -3.05044989760919    3.33115780926941
C        -1.26368911672612   -1.75883040533695    4.58429742108538
H        -1.28851940425793   -2.39906860149385    5.45176489209263
C        -0.58553299332013   -0.55324427753870    4.63783960655113
H        -0.08925322702708   -0.25351186387192    5.55089804632391
C         1.54574345490698    3.87461235996666    3.66033840103431
H         1.21098949505404    4.33847328282714    2.72737092117857
H         2.57940468927987    3.55321158083736    3.49764181547089
C         2.60260233820933    6.01791907538803    4.19169825991717
H         2.27252158691869    6.42117384846319    3.23690712247973
H         3.58601165056953    5.57353279611602    4.05503118112560
H         2.69636350623295    6.84143632071744    4.89676581378429
C         0.25335030047580    5.68224805716713    4.91529058891816
H         0.38968576946616    6.59342004256338    5.49485146947219
H        -0.44747787879758    5.05088143051140    5.45070949687466
H        -0.18118653918298    5.95025798621172    3.95473758847770
C         2.11134579773488    4.46344500994538    6.06906795991167
H         1.38575048034778    3.81394781504711    6.54655784979835
H         2.30266392772381    5.29815330606879    6.74076510529308
H         3.03886949528723    3.91102624110368    5.93863730275128
C         1.59739128422605    4.97646185038085    4.72298326490173

