86
CSD_code = ESONEF | q = 0 | S = 0 | Stoichiometry = C37H38CoN5O4Si | MND = 6
Co        0.44312235762867    2.10353334153894    3.67080190420016
N        -0.49310133170528    2.47727092284283    5.25699629154165
N        -1.02636036603789    2.97834185637390    2.89995581466098
N         1.32674385719155    1.64176258059899    2.07197430256853
N         1.94809248172692    1.29898395589637    4.44462055295939
N        -0.56937357130564    0.26447424050113    3.59321765621372
O        -0.07346276049173    2.10238874308822    6.41584051200048
O        -1.20805426483984    3.18978698317493    1.57128316385181
H        -0.38371991179335    2.73132474457733    1.12816145387537
O         0.83064385876836    1.87672106943430    0.90804955944965
O         2.14821882775101    1.11461444090436    5.77261603214274
H         1.31028364748912    1.54462580607365    6.21239037149300
Si        1.58299450628513    5.04611504580014    5.09527722225335
C        -2.82635107307097    2.33882036429618    7.19137678619410
H        -2.29806212021285    1.39868554727608    7.15465150716986
C        -3.70735502323354    2.59516547505623    8.22545917998907
H        -3.86299874771497    1.85046582600313    8.99240457227384
C        -4.38705754940271    3.79974700183442    8.28030231854490
H        -5.07396550312596    3.99906957988906    9.08961797295076
C        -4.17698962507886    4.75159408576350    7.29586800185639
H        -4.69782050210525    5.69700358326323    7.33713319051727
C        -3.29853162933743    4.50146292617269    6.25966445432189
H        -3.12934260204229    5.25541548647532    5.50662634236063
C        -2.61520178119959    3.28744705894655    6.19333712183344
C        -1.67609982877783    3.01251660678504    5.09624400027035
C        -1.97030956964394    3.31865063834158    3.71841070443679
C        -3.24777152132796    3.90317928314679    3.28225073198529
C        -4.45056319001886    3.32030495599613    3.67349036987925
H        -4.43984053947779    2.43546054326830    4.29321213455845
C        -5.65138586379947    3.86605649996554    3.26151603048866
H        -6.58043991054756    3.40820449897175    3.56770071848898
C        -5.66449569831374    4.99635446134704    2.46069716359996
H        -6.60448001445764    5.42362704692320    2.14418884852682
C        -4.47072308861838    5.57432870699937    2.06276843940162
H        -4.47790321208193    6.45296947220527    1.43502331934819
C        -3.26559771484699    5.02920855955120    2.46500615534088
H        -2.33430410132634    5.47774268011555    2.15524561458351
C         2.79989701838313   -0.05935105529207    0.01253995144806
H         1.74183865758294   -0.26877196739176   -0.02413371971663
C         3.62017503645380   -0.44805393215024   -1.03023342241670
H         3.19735039506211   -0.96400541536461   -1.87993511696449
C         4.97726849699837   -0.17853319471294   -0.98767725232697
H         5.61656029502306   -0.48362807281369   -1.80306488574515
C         5.51175766576481    0.49258388146594    0.10007126334864
H         6.56793649984738    0.71637707261554    0.13253372091318
C         4.69786812087076    0.88347209339182    1.14538293858594
H         5.11571276677479    1.42050543282319    1.98391732744462
C         3.33304081765412    0.60197446573000    1.11559990981556
C         2.46724736462464    1.02236950542134    2.22663345018089
C         2.81752746181319    0.82018664292986    3.61175859931466
C         4.02809931863620    0.09245793168129    4.02122886320715
C         4.88735659875509    0.63535932803289    4.97192901322460
H         4.65891163985748    1.59432438538733    5.41050122117918
C         6.03311102105619   -0.04481433444298    5.34006896536565
H         6.69934816116247    0.38629278155077    6.07244069968491
C         6.32653278142927   -1.27363906333254    4.77334023554953
H         7.22225369780160   -1.80333956265347    5.06220311620757
C         5.46695941649178   -1.82485042820277    3.83717111642307
H         5.68925115246199   -2.78605483105382    3.39771579314620
C         4.32360949645264   -1.14718797587804    3.45925678776345
H         3.65093627615076   -1.58026707769944    2.73355277035842
C        -1.19341422792477   -0.12135480118944    2.48203995446872
H        -1.13044263067765    0.53645571035844    1.62584635297023
C        -1.89272143100978   -1.31209579809478    2.38771135659374
H        -2.38102048678130   -1.57498842673999    1.46283619630142
C        -1.95085644795711   -2.14538100533501    3.49290317961561
H        -2.48856968040121   -3.08080501378948    3.45444000176186
C        -1.29901699725552   -1.74645070518231    4.64839821077367
H        -1.31062090518467   -2.35806356494481    5.53652332365336
C        -0.62281396544963   -0.53873422203322    4.65369496226927
H        -0.11461966704809   -0.20798847145269    5.54928055635288
C         1.46296390205991    3.83641492963226    3.62570483937138
H         1.06139568913775    4.39025147598824    2.77239383838034
H         2.48804060697845    3.57606343511137    3.34585599551529
C         2.80839180365683    6.39571286530581    4.50137795842623
H         2.45326880890605    6.88660148266848    3.60114194935241
H         3.78593923313200    5.97860541157257    4.28237064800694
H         2.94143239993929    7.16003637949523    5.26034989870032
C        -0.07805033985656    5.90946126004838    5.47916876617519
H         0.08633115465026    6.91204058563296    5.86218703509631
H        -0.64120331345038    5.36487669646113    6.22913943357035
H        -0.70015720102455    5.99551219982901    4.59351682764558
C         2.28980715667523    4.28736635399739    6.69671732260556
H         1.54287030425209    3.69523817064903    7.21478478543544
H         2.62170016471630    5.06579840159459    7.37787551933253
H         3.13957899190499    3.64199542098090    6.49855922550693

