84
CSD_code = ESORUZ | q = 0 | S = 0 | Stoichiometry = C35H42N6Ti | MND = 6
Ti        5.22836988470274   14.27005840321009    0.65316182487763
N         5.90910101953618   15.89067327081087    1.45287431031913
N         6.90117640862179   13.55266459644803    0.00401540978657
N         5.37211268166878   15.60213994935003   -1.18621237753859
N         4.96247732000515   13.25095177971796    2.01535367877384
N         3.24180230119283   14.91641311210689    0.96335170476994
N         4.06742324323647   12.98730607172828   -0.56674761110602
C         6.51914499296609   16.24844327857865    2.61036220959742
H         6.75948157746026   15.50066519403461    3.35153743587426
C         6.74210076801515   17.60624136655374    2.62764891218443
H         7.21074528672298   18.17631276290269    3.40765831820007
C         6.24233135049225   18.11209703436134    1.40914380403724
H         6.25179642112977   19.13671282117152    1.08387493371306
C         5.73910871592685   17.03026174749498    0.71997344223754
C         7.50669824442354   12.33948874648265    0.09474815118200
H         7.34116896931330   11.70810812108493    0.95520203356090
C         8.28680985373856   12.11445371317792   -1.01717668735491
H         8.89018083242084   11.24939190737015   -1.22112693344494
C         8.14851441260471   13.25159742294110   -1.84323373877070
H         8.62735645412655   13.42076995014525   -2.79089384908075
C         7.28975035727137   14.10338754098261   -1.18463068917461
C         5.08080698032217   16.92640992080521   -0.62449267717167
H         5.43534329257682   17.73275451828113   -1.29260218197587
H         3.98655541200125   17.03188121968808   -0.53678836504548
C         6.81400926769349   15.48692383717957   -1.49292970738330
H         7.02145537677818   15.75602485427129   -2.54006717364270
H         7.35618817343605   16.19467612250994   -0.84943200307968
C         4.59262694750069   15.37076838012343   -2.39295139237697
H         4.77571220662172   16.15440056517037   -3.14681871862044
H         3.52284255210540   15.36400358007172   -2.16375669223277
H         4.86525728702536   14.40766917969164   -2.83057015133847
C         4.69948713503394   12.20919202299406    2.77512317735119
C         5.63671922671528   11.75535975644128    3.73930176924267
H         6.56918185251228   12.29894204348158    3.82441033507392
C         5.37245707864243   10.65711597216656    4.52215423867373
H         6.10827488240895   10.32813445927140    5.24392562658951
C         4.17259209606810    9.96674872261938    4.40229441244900
H         3.97155180545660    9.10666345969273    5.02363592611248
C         3.23394978420632   10.39817481762373    3.47613827821719
H         2.29479202082561    9.86784542525533    3.37792313164084
C         3.47974966255940   11.49122203405146    2.67611475382619
H         2.74016262715954   11.82363492954629    1.95588393682425
C         2.26235663017034   14.17495799167838    0.40558510744548
C         0.92788139299364   14.31818621476673    0.78614151773564
H         0.17794065812737   13.69279974289292    0.33007405834506
C         0.55609734092796   15.23845214971939    1.75670796911088
C         1.59209688574559   15.98347520986428    2.32735774596301
H         1.40051909603146   16.71187825058352    3.09625877124669
C         2.89325195354206   15.78995948824164    1.90730183311327
H         3.70028922229801   16.36236478084605    2.35220515149691
C         2.72814142506449   13.14577197933775   -0.52377167513747
C         1.87058307724927   12.32153685345090   -1.25262545134932
H         0.80795892702070   12.49667433637282   -1.21076824294209
C         2.36573352134163   11.28207257600513   -2.02919650294055
C         3.75249424253698   11.12268207529205   -2.03108451022846
H         4.22734731047702   10.33671250963363   -2.59237838505584
C         4.54766498997186   11.98976542070711   -1.30327545465607
H         5.62470977323664   11.86157404987384   -1.30681721408506
C        -0.90035032906562   15.38113426906351    2.15640552251890
C        -1.10549761347012   16.45402380364559    3.22810558681392
H        -0.56839148328566   16.20326365161161    4.13940888730201
H        -2.16342968265563   16.52461177219785    3.47098433894003
H        -0.77675427342668   17.42880859577701    2.87529530358570
C        -1.72331129418593   15.76908377630288    0.91921362138653
H        -1.36793208043214   16.71249875843548    0.50978134226556
H        -2.76974564161162   15.88499587146223    1.19122743440674
H        -1.65781673991208   15.01266078210711    0.14176750993297
C        -1.39238788976924   14.03758948579158    2.71348104233688
H        -1.34147047230291   13.25201413891361    1.96449554786152
H        -2.42526652088512   14.12759166364996    3.04180537477052
H        -0.78390356101630   13.73722839508792    3.56351373796215
C         1.41574331118160   10.38531304190723   -2.80010684441481
C         0.47489538821099    9.69522040431436   -1.80186549406161
H         1.04959096892585    9.12117602434408   -1.07845583512009
H        -0.19315892572266    9.01772858057756   -2.32842096358469
H        -0.13112637509639   10.41655117324515   -1.26041906012157
C         0.60205826155867   11.24088463945450   -3.78173890295041
H        -0.06735940592336   10.60679151568116   -4.35814077617282
H         1.26515192858223   11.75800377433610   -4.47223264113909
H         0.00146820019547   11.98340882802471   -3.26323118216308
C         2.15340329597894    9.30576738592732   -3.59512214248819
H         2.72251455023886    8.65526876952550   -2.93568679532625
H         2.82409377522022    9.74766582467293   -4.32828574885377
H         1.43074939867291    8.69236683307688   -4.12857438752205

