56
CSD_code = ESOROT | q = 0 | S = 0 | Stoichiometry = C21H28N4O2Ti | MND = 6
Ti        7.35931821981607    5.15773279847586    7.31986239474078
N         6.63833604918934    4.16628513711015    8.80423831457847
N         8.88720398753072    6.08900017617363    8.02971215697145
N         6.20728057801735    6.81094493324509    8.43290679455855
N         8.12869690447674    3.89878242361326    6.46244000371291
O         7.40579459268134    6.59648597978304    5.54729042268649
O         5.44724039572155    4.82737058062486    6.09904305603013
C         6.85331880182645    2.95138181852290    9.37421520326883
H         7.65638832534149    2.31972297405019    9.02927092293356
C         5.93363379395574    2.72637415721903   10.37045196855152
H         5.85856779080382    1.85785731129955   10.99657019752342
C         5.10459061770916    3.86664304978949   10.42084296159457
H         4.27730837655223    4.03523849948606   11.08602524373141
C         5.56664304794200    4.72370366378341    9.44749547759869
C        10.15415410077548    6.29814569121765    7.58294007018254
H        10.62938733679260    5.58411594470868    6.92783027462611
C        10.64682876363550    7.47674969501623    8.09570140209747
H        11.62048797640029    7.89785456348054    7.92823730635812
C         9.62295429468174    8.02833530774318    8.89670962658629
H         9.66712586038563    8.94426438984985    9.45738264337624
C         8.56473351764109    7.15071083102465    8.82741097838107
C         5.08458826683103    6.07928572090567    9.02109411346647
H         4.29377171990688    5.99270740960361    8.25834903630551
H         4.65067481650045    6.62273359659704    9.88095575850676
C         7.21176248834734    7.14206186675468    9.46246260091668
H         7.18244424241552    6.35908359894285   10.23469094723293
H         6.98842849699514    8.10656126285958    9.94570525320221
C         5.75391868130019    8.03007071657101    7.78479390652071
H         5.20858835824265    8.68325610585200    8.48615746792873
H         5.08383727626774    7.79154381811805    6.95512737793589
H         6.61449360007283    8.58469990323833    7.40687552029075
C         8.95894784508804    2.87098390857684    6.35854686270615
C         8.93782511523724    1.98691513707838    5.25431846602990
H         8.22050318125985    2.16175316935024    4.45929757253352
C         9.80615403953393    0.91961897622300    5.18195363811594
H         9.76632061704174    0.25690137157047    4.32701583694137
C        10.72801871791849    0.68593328012076    6.19031336020545
H        11.40415935963155   -0.15383169302774    6.12727240135060
C        10.77237485707903    1.54369071267478    7.28382851047812
H        11.49097696608531    1.36458441174437    8.07276806330087
C         9.91438802066533    2.61338456419635    7.37605344393695
H         9.93259905754681    3.29455947833404    8.22276778813546
C         5.90250966084231    4.92899384492955    4.76033576287216
H         5.07146088905421    4.73423270966373    4.06220980611621
H         6.71903493606377    4.20157362615861    4.60496324798368
C         8.28979442101778    7.64592532819728    5.19547202640161
H         8.84467624482837    7.39269876679328    4.28387087542791
H         8.99649924219729    7.76546148052008    6.01799599438239
H         7.73928879832852    8.58177931906750    5.03138508892155
C         6.44942996574480    6.33482256781399    4.54164125251489
H         6.91259394050364    6.38661389095790    3.54467232028132
H         5.63635364276671    7.08081792423829    4.59154446211924
C         4.92670978477149    3.52835317241727    6.35646813774652
H         4.11946849935317    3.30253513649931    5.64654821650736
H         4.53168948713335    3.52615715255597    7.37277949244136
H         5.72202143155233    2.77533783768561    6.27808797015460

