86
CSD_code = ESOSOU | q = 1 | S = 0 | Stoichiometry = C32H46N7Ti(1+) | MND = 6
Ti        2.07171766268116    5.18540472268735   17.04543930623194
N         2.27332454522250    5.13888658184331   18.96439834008862
N         2.56640027491319    3.36182132402099   16.59310379056981
N         4.34951186179003    5.31683557402943   17.08414286606874
N         0.34868474030933    5.13792791988811   16.95417252997606
N         2.14378368218533    7.35143697166399   16.95135064711237
N         2.15262161956444    5.71261882354418   14.90616522220883
N        -0.95252782531584    4.69353754168164   16.96193467840665
C         1.52942058310126    5.57252076384977   20.02175106159260
H         0.45567364300231    5.65937377775691   19.95049510198118
C         2.34009196383472    5.85815180754200   21.09411586271172
H         2.03381639732418    6.20608980850709   22.06182129011944
C         3.66309219134314    5.59551982634919   20.67746346343171
H         4.55385923061238    5.70176656412910   21.26669561221531
C         3.57910858649735    5.16464798161650   19.37449014628819
C         1.96373794420696    2.14442273699135   16.47975300263166
H         0.98856456462889    1.95789126178012   16.90250955381567
C         2.79152767151310    1.25041808997902   15.84518867218447
H         2.58485397445625    0.22074192205399   15.62767721822847
C         3.97914806985950    1.94900439745475   15.54828508610195
H         4.85030856072859    1.55747562638609   15.05859409725249
C         3.80496087585886    3.23013580488135   16.01934851338779
C         4.61257028735936    4.69856992984787   18.40327800361653
H         4.53684559686682    3.60683136625114   18.29702029410002
H         5.62626494635636    4.93319443749932   18.75881851599352
C         4.74905658427192    4.39643583665655   16.01622615636658
H         5.78645311915343    4.04431940885351   16.15541137733996
H         4.72160780634431    4.93286539670278   15.05396760572949
C         5.09457235122505    6.56619660733014   16.99072713193168
H         6.17980502400824    6.38763251895126   17.03023332029782
H         4.82747628568118    7.21879053355683   17.82474289883775
H         4.87340816660663    7.08083821133699   16.05141654031633
C        -1.20381366515996    3.79692566122641   18.12874904867309
H        -0.40159662729715    3.05905377882342   18.16785212936311
H        -2.17382960081120    3.31045174803583   18.04481503349041
H        -1.16120521939842    4.38334564086505   19.04408086641928
C        -1.24888185079288    3.93717518891507   15.70917242649460
H        -0.57101488337659    3.08592212234248   15.65543416903864
H        -1.05336308550626    4.59029880257010   14.85900954863960
H        -2.28362179534882    3.59973037686242   15.68950774620075
C        -1.88987990705214    5.85039188895893   17.04686249763667
H        -1.64135826590073    6.42896982515582   17.93576784474573
H        -2.92370859959288    5.51400886324935   17.09688180340012
H        -1.74473308713849    6.48232468690595   16.17157577879616
C         2.27282235508210    7.92997809267056   15.74609695810018
C         2.26417916273389    9.31297971002297   15.59360183311807
H         2.34662174592416    9.74241443269817   14.60912471584162
C         2.14064449568046   10.15275118168654   16.69943870721765
C         2.01889192125340    9.52457199612463   17.93661881338736
H         1.92123423824043   10.09157849958034   18.84623943478254
C         2.02101629746682    8.14037975108695   18.01119412043607
H         1.91908718481937    7.64598071183952   18.97260250944148
C         2.38437393922079    6.99733841078682   14.60732115602930
C         2.68679635966843    7.40857204241849   13.30860290809314
H         2.90623504376735    8.44412016029153   13.11640110021656
C         2.72835627296747    6.48700910048378   12.26781716322411
C         2.41938101268719    5.16570869298641   12.60022467357166
H         2.40435748134957    4.39342162581956   11.84912360322027
C         2.14788913998091    4.82873563531063   13.91314720973991
H         1.92386396583709    3.80271684467941   14.18249276651117
C         2.14106652376164   11.65662853829129   16.51898700946115
C         3.46008721324752   12.07454929920154   15.85224867686650
H         4.30754080141059   11.76873004309617   16.46193683061668
H         3.48901509718237   13.15543551747857   15.74521952290782
H         3.57006787081738   11.63592619629523   14.86415520187110
C         2.01166807474155   12.40089907800130   17.84946620849106
H         2.84256561115433   12.17099974703471   18.51205059881557
H         1.07607898314939   12.15859025279190   18.34777289298976
H         2.02131865167418   13.47183610744663   17.66407501797246
C         0.95532488634436   12.04604723052320   15.62373821532607
H         1.02938056009205   11.59637569787638   14.63723010598047
H         0.92952777143539   13.12538283782554   15.50119797268027
H         0.01790453852509   11.73048869110721   16.07667616644112
C         3.08465838592876    6.85488555032751   10.84276339070766
C         3.38029869155969    8.34709238255944   10.67530995815198
H         2.51280717598370    8.95270351058730   10.92885254888927
H         3.63060209633568    8.54724363318680    9.63685457088806
H         4.22818240727423    8.65390972280022   11.28394872137839
C         4.33380293496572    6.05921860104324   10.43538630986698
H         5.16997038194413    6.30070985616711   11.08837888767969
H         4.61255452089826    6.31227648635785    9.41611932291053
H         4.15930116981007    4.98815935257713   10.48260317819666
C         1.90867085983226    6.48416879024799    9.92747209641425
H         1.00908219084504    7.01782850114526   10.22716919811540
H         1.70147081102224    5.41832044935774    9.95195326863122
H         2.14356677455583    6.75833437861657    8.90263965478032

