80
CSD_code = ESOTIQ | q = 0 | S = 0 | Stoichiometry = C46H29N3OPd | MND = 4
Pd        1.24891018527439    0.20867703060125    4.35705160760775
C         1.39391346152744    2.55338071209256    2.39234182460941
O         2.87744593097201    1.32871103505040    6.27496868103665
C         1.26067292504809   -2.07230998090536    6.35560391614205
C         1.98104048957390    2.88644608724138    1.12592006441184
H         2.08562275090917    3.88210475445473    0.74100647524201
C         0.27151634673143    3.13418527762600    4.49431837518089
C         2.33418602643091   -1.08613121540866   -2.53598189804753
H         1.74207417580760   -0.80577271534100   -3.39484716784527
N         0.90048631293627   -0.77994653657074    6.11605877484927
N         1.49250466174335    1.20529034866244    2.59103290791025
C        -1.70031102939259    2.00859556321040   11.28201396092128
H        -2.14514861229080    2.25306931690199   12.23528750183556
C         1.72249539678001   -4.43668070201537    5.84472308202597
N         1.76109987001055   -1.54874990656620    3.45660809500180
C         3.50062215672121   -1.81348999090401   -2.70536454447615
H         3.82226628359192   -2.09853163501607   -3.69603822729416
C        -0.02579282059381    2.00902895214831    6.50336286693970
C        -0.89768900915715    3.13242444503957    6.44914502029990
H        -1.61896269000570    3.37444360394053    7.20901230368543
C        -0.56840328690358    6.18873420775487    0.94745833068962
H        -1.05109877747830    6.28473315312343   -0.01419209086800
C        -0.27469345220370    7.31994995710236    1.69103864157370
H        -0.52188757626977    8.29910889380404    1.30849743921511
C        -0.72513488034587    3.79397740323700    5.26454429128989
H        -1.28730362114397    4.64651339648486    4.92786322919295
C         2.00496870874902   -1.71795276554320    2.12955911563610
C        -0.80132757975461    2.88062784321130   10.68998034204455
H        -0.54159988729547    3.80587875699242   11.18329920949925
C         2.22887791277007   -0.69260753060850    1.20277482333622
C         2.04845251290878   -3.12303140174075    1.83303188908843
H         2.18682411257623   -3.54290980539361    0.85590793373316
C         4.25285351535598   -2.17413640560496   -1.59972498484211
H         5.16485966595329   -2.73872774752614   -1.72718544452077
C         2.90991982742351   -5.11701226867025    5.58792125305504
H         3.70728272426656   -4.60926256362254    5.06522146126730
C         2.38904081938821    1.72634081899380    0.55626656036126
H         2.88667997767544    1.59296073312728   -0.38418331559346
C         1.92304657611845   -0.71699037067722   -1.26848390914646
H         1.00818433456327   -0.15834411458037   -1.13388113708499
C        -0.24867362621195    4.93437660078403    1.43266290280920
H        -0.49408985348661    4.05154932084555    0.86047982419274
C         0.86327156092790   -1.16082835930940    8.36715816188213
H         0.76942335594925   -0.95627974212361    9.41571638626390
C         1.25562798869576   -2.31260459270727    7.77421407862521
H         1.54405712435711   -3.23305078304851    8.24302135051374
C         1.54737968984624   -3.04324969722623    5.39195514701813
C         0.05252327469627    1.06291836009290    7.52078660296538
C         0.70471078781237   -5.09032848760357    6.53437808065226
H        -0.22318117120480   -4.57089752181196    6.72515950233774
C         0.87108918599814   -6.39723866960176    6.95424602314460
H         0.07235147375660   -6.89680538943551    7.48273794731778
C         0.33394812225249    7.19037283163187    2.92860185053245
H         0.56445773327268    8.06944547525962    3.51248513648049
C         1.69193465090408   -2.78195116449519    4.02274822072165
C         2.67147615011201   -1.07846052544091   -0.15133336413263
C        -0.55073139070334    1.37520890583936    8.82544954047878
C         1.85441470387993   -3.78031558654613    3.00284284180218
H         1.80516860367517   -4.83952816054474    3.16375459781093
C         3.07643646841256   -6.42073733796091    6.01734824353790
H         4.00503715837483   -6.93603480479060    5.82002862170239
C        -2.02866214975469    0.82266502491408   10.64591538466032
H        -2.73481473336989    0.14325159957074   11.10076639313594
C         0.36815339711542    4.79423144809139    2.67403875914956
C         3.84018349326723   -1.81373011263783   -0.33012145571288
H         4.43021775816792   -2.08668746383753    0.53262856264552
C         0.62060595629497   -0.20773720310841    7.31946057238874
C        -1.45753528144064    0.50527943885982    9.42760213864865
H        -1.72719521246114   -0.41162442990627    8.92373179417993
C         0.64882162329858    5.93741273122865    3.42003025118130
H         1.13179712525158    5.83505410749360    4.38107719774180
C         2.05746070216542   -7.06495992414810    6.69929448757540
H         2.18768649028847   -8.08419434298496    7.03155000706706
C        -0.23415392889102    2.57038370571306    9.46823194139238
H         0.47669719475151    3.24181867808393    9.00946308068080
C         0.70507089235068    3.46735837016946    3.21431139713240
C         0.76777559813195    2.01127694853647    5.28201853520019
C         2.05392265552586    0.66944094346976    1.46947673577903
C         2.24673432706213    1.86833528968207    5.37613564799712
H         2.80010766195957    2.48696988489592    4.62460961453744

