89
CSD_code = ESOVIS | q = 0 | S = 0 | Stoichiometry = C32H47BFeN8 | MND = 4
C         8.26259881842318    9.22324803962862   24.45306017522016
C         7.65818042799131    7.09138395205467   24.48924758989821
H         7.14750741347049    6.20469413020008   24.17437038063757
C         8.51454151879733    7.27674763488765   25.51883085483160
H         8.86786691248250    6.57402457790091   26.24282335821723
C         9.87876947719688    9.22455698206735   26.36159644981432
C        11.15736252076836    9.41791022577870   25.53897436282292
H        11.53986043250417    8.45784597903422   25.20033705754466
H        11.92363614409886    9.91294483496408   26.12947523324689
H        10.93114336646828   10.02847239418827   24.66266529616854
C        10.16727724185910    8.35457148528725   27.58714128169719
H        10.65013631417894    7.42240168214924   27.30527105172751
H         9.25028672561763    8.13248079905858   28.12860044638528
H        10.83844266463113    8.88860168431086   28.25518566692905
C         9.34947218930423   10.58351387460922   26.82472841031119
H         9.21684552592777   11.23521718490499   25.95547404819195
H        10.05451316700931   11.05205129579149   27.50615155162311
H         8.39257409601774   10.47045690731805   27.32847167848752
C         6.56115076246918   10.93438803137197   23.49787306612402
C         4.64181518266899   10.28696017360975   22.59345993924535
H         3.95879652084010    9.64120658939239   22.08154828919831
C         4.48128150379071   11.57187540387995   22.98387459453854
H         3.62637619538542   12.20736999126303   22.89318640653218
C         5.96347315496453   13.31109293546680   24.03275193837765
C         6.79113153026818   13.21447121763816   25.31552942787056
H         6.26538400082697   12.63103715127065   26.06745118104537
H         6.98951942885430   14.20670019712287   25.71176108289420
H         7.74661639405465   12.72880441955610   25.09647678652871
C         4.67480544651776   14.08318107356643   24.32982909580375
H         4.03512127626252   13.52059740327587   25.00649372379008
H         4.12390649570693   14.30313276737758   23.41897751986279
H         4.92516647602795   15.02956228139510   24.80263814263823
C         6.76982655082469   14.02764452859559   22.94433735634980
H         6.19132253088921   14.09723932832547   22.02579507505321
H         7.67885147100695   13.45918060083426   22.73869337036391
H         7.04243987612552   15.02954980466936   23.26487933350506
C         8.64464466884969    9.97329660765164   21.68548742506194
C         7.56855910281914    8.73396470032272   20.17575275073962
H         6.81264409116480    8.08131947972158   19.79078263653065
C         8.55905350763833    9.38369582385306   19.52469785076444
H         8.81302650460383    9.36013388427325   18.48694534880265
C        10.38701816601081   10.96373728157658   20.17129864143127
C        11.48624126783910   10.63546974155364   21.18319432117882
H        11.10421273412323   10.76900588467305   22.18951657355101
H        12.33884192585388   11.29301843068924   21.04028356022431
H        11.80893035468933    9.60314923246685   21.06468219430524
C        10.92767118449526   10.68805481987881   18.76452406570155
H        10.22488269747340   11.00071710878520   17.99540544808806
H        11.16009811367686    9.63333779724155   18.63245374911199
H        11.84454598699800   11.25631162948806   18.62801395322133
C         9.96573392482109   12.43196648455792   20.26367148985312
H         9.19055275653195   12.64827326839176   19.53074689313137
H        10.81581781397404   13.08347565935369   20.08299568321697
H         9.57653713331278   12.63222384336523   21.25662680106646
C        10.63829262651881   13.04073178314559   23.71208024937261
C        11.90764466362658   14.78225310889965   24.76135399435454
C        12.49946149168190   13.98600184205596   25.93457824351980
H        13.34882236281038   13.39807369221947   25.59362968669094
H        11.75120333932709   13.30613629894859   26.33951107124754
H        12.82958791382326   14.65828150437562   26.72348028241599
C        10.69422191565188   15.58927258769110   25.24793861606699
H         9.93881805583098   14.91917849175849   25.65646307553868
H        10.25456711073757   16.13772799372524   24.41732381586246
H        10.99132255400924   16.29681942393676   26.01893784916671
C        12.96568560259398   15.72382346851061   24.18101645824644
H        13.81349845834195   15.14792234925962   23.81900348340807
H        13.30951841482414   16.42495476014791   24.93764505361034
H        12.54837944179254   16.28016262308581   23.34537123899977
C         5.78870754704946    7.31738228959293   22.26332201183941
C         6.31389871409908    6.25252762572775   21.52957515196718
H         7.32135786871253    6.32200009927694   21.14366046702041
C         5.59336230693531    5.09349436228233   21.30113333888003
H         6.03075821291756    4.29264549068492   20.72047335614857
C         4.31914766382372    4.95312877120846   21.82254551633379
H         3.74974675771564    4.05229561596222   21.64191874473049
C         3.79471617667679    5.97006837224371   22.60013327306207
H         2.81403179705778    5.86010727298242   23.04298887154822
C         4.52581745607642    7.12453137534049   22.82174800412169
H         4.10806248365062    7.88498646371427   23.46601377359386
N         7.51528839321187    8.28814382437631   23.85093919029269
N         8.88177789340173    8.60137412368477   25.50012543549976
N         5.90351267383391    9.90456880542149   22.93793543524901
N         5.66575484795659   11.96488896442683   23.55922366078108
N         7.64926138167994    9.07740373287709   21.49211552363074
N         9.22396427347410   10.12952383018863   20.46381606781945
N         9.84398285350718   12.17404135666827   23.48342089645822
N        11.52795628008251   13.88386840688747   23.70342427156694
Fe        8.52939067474160   11.00679248652645   23.71738543743367
B         6.67886810266582    8.61541756170963   22.60472784402472

