106
CSD_code = ESOWOY | q = 1 | S = 0 | Stoichiometry = C42H61OsP2(1+) | MND = 5
Os        6.67172855875817   11.89757901889361   21.54862875062908
P         5.55922618775741   10.85894568825050   19.65551631532193
P         8.38275311800579   12.62821488598117   23.13780021010365
C         6.47519189685047   10.23924371125688   22.74157662610877
H         7.22540595347184    9.53838087841488   22.34133441835507
C         5.80031106184392    9.85325296367400   23.81815109078283
H         5.04874570092754   10.50675798240526   24.24437906798386
C         5.95470376073945    8.59070185221034   24.54404036136903
C         5.24055450783766    8.42033942634815   25.73141610518842
H         4.59122307614137    9.21333644961913   26.07538111199719
C         5.35376980576477    7.25860322002546   26.46952093963543
H         4.79316468921692    7.14810240743933   27.38556212732610
C         6.18213236240564    6.23695452820641   26.03526476889747
H         6.27142640467869    5.32763268362898   26.60923805576277
C         6.89300378791263    6.38858131932318   24.85644051454458
H         7.53759431806784    5.59478955629115   24.50893639511258
C         6.78177606359326    7.55092732285060   24.11827801129406
H         7.34399307693803    7.63718797552640   23.19925394235676
C         7.95456556703927   12.64164810325408   20.17097144987377
C         8.75105826869295   13.06376808816257   19.35462920497292
C         9.66073852043872   13.57666809569396   18.39748101997116
C        10.78736548836083   12.84354989226964   18.02511846416794
H        10.96828458676029   11.87502154571418   18.47111894250210
C        11.66581483624841   13.35670563111892   17.09083006798220
H        12.53710166912558   12.78583373861619   16.80604867047146
C        11.43243208994973   14.59769290993106   16.52049224874111
H        12.12159023569750   14.99446741158160   15.79096187124793
C        10.31349597700486   15.32869609674445   16.88705497488655
H        10.13029556297789   16.29566479921480   16.44279494658357
C         9.42874371637612   14.82567625759176   17.82027046420734
H         8.55385532455007   15.39091063317800   18.11087008300764
C         5.21088121290836   12.81109202714425   22.07215554793089
C         4.11222103597661   13.74195930942197   22.24994274598958
H         4.34672086665175   14.41442605553906   23.08716840936811
H         3.19995094628838   13.20012743252326   22.52554511196933
C         3.85528054419340   14.58956224327079   21.01425003323600
C         2.55425584284888   14.84711491836243   20.60756461738556
H         1.72197944102357   14.43758861300752   21.16155793331871
C         2.31798246193138   15.63404142854952   19.49257292384445
H         1.30307463657133   15.83105230247818   19.18353217449805
C         3.37762551925004   16.16847695968246   18.78049137999105
H         3.19067835790410   16.78501329779954   17.91490783195605
C         4.67779053369298   15.90938607285652   19.18224420580173
H         5.50705379423554   16.32400619869569   18.62983866607804
C         4.91699436052092   15.12104669245760   20.29336388606145
H         5.93227384791988   14.89691424487583   20.59691304298937
C         4.66456892021133   12.10153610155032   18.56271516143975
H         4.25128824602214   12.81126799114183   19.29114580111043
C         5.64387644997066   12.87279999862906   17.68033054422317
H         5.99352146393116   12.26406984413962   16.84966801233730
H         6.49993407352725   13.21815026537963   18.25514086567972
H         5.14222341821014   13.74533097576751   17.26744227281476
C         3.50848553974718   11.57654371015139   17.71134316776030
H         3.11944882475053   12.40830758607379   17.12631248646509
H         2.68903561368402   11.19256443898560   18.31114753061404
H         3.82469077407058   10.80648151223470   17.01359380563187
C         6.81309532099245   10.01930969350409   18.55181993246260
H         7.33836206488750   10.85907568500686   18.07789818051408
C         7.84324202953133    9.25682399336187   19.38547507791015
H         7.40588177019223    8.39828220150447   19.88983241748123
H         8.29374343219259    9.91688751339378   20.13215205211426
H         8.64504615591452    8.89700847134123   18.74203827035327
C         6.22045637718026    9.13650871215106   17.45861655582613
H         7.03060476291818    8.71121517996722   16.86781264311326
H         5.58887525406162    9.70887922147566   16.78535195436723
H         5.63952616459145    8.31407549544409   17.86712799920094
C         4.20566484934330    9.62446700667675   20.02274026503185
H         3.73601109317650    9.40683840587910   19.05749074239676
C         3.19695750642985   10.29648391950686   20.95151972485031
H         2.33346307680432    9.65016325190217   21.09385603934881
H         2.85332789353860   11.24810196935757   20.55180375491108
H         3.65876284683332   10.47550088750191   21.92128406637977
C         4.67068596313789    8.30840610532798   20.63795447195242
H         5.17358691720726    8.47552321538945   21.58586412421320
H         5.32740452403908    7.75245259461461   19.97436296067779
H         3.80006528503358    7.68423958612406   20.83294004505281
C        10.00734388379708   11.69436672940744   23.12118027388575
H        10.62804989778303   12.23026605940809   23.84975212171458
C        10.69772457373977   11.75538671869247   21.76059211693498
H        11.69506954130523   11.32525473421155   21.83991382691639
H        10.79621251024032   12.77355530542234   21.39191311682857
H        10.14657596383551   11.18112376589004   21.01745108666647
C         9.89399431597465   10.23838474990040   23.56789889751816
H         9.37440830761203    9.63768237852597   22.82455850400220
H         9.38178871607065   10.12996620897832   24.52059574853698
H        10.89397867448107    9.82194752926769   23.67969836802956
C         7.86590333573353   12.45293080038381   24.93430414863688
H         7.75678298059808   11.36469640137130   25.03548871485025
C         6.49002278222124   13.05695063724696   25.20046712384448
H         6.09000262554143   12.65054718863740   26.12703416865783
H         5.80683153041254   12.80744355796769   24.38833284732873
H         6.53996026152605   14.13645248887814   25.30477442635652
C         8.86382758495825   12.94071408357337   25.98001135647620
H         8.89935218812687   14.02633128246357   26.01121401280468
H         9.86651471413547   12.55599422961201   25.81553198114210
H         8.53714367579984   12.59718052827434   26.96020308179821
C         8.92535332840271   14.38468227200705   22.78003210208222
H         9.07524322105494   14.36993645065656   21.69145316871483
C        10.21488573897863   14.87828175260435   23.42953268832531
H        10.39017215334009   15.90192855562820   23.10192230068065
H        11.07916854247305   14.29047739485325   23.13357087790290
H        10.15107598743959   14.88570041582212   24.51278360631861
C         7.77062481023958   15.34066031813449   23.07245581728431
H         7.71508796863944   15.57072872610072   24.13303782216674
H         6.82597120231246   14.89839407619053   22.75142521344978
H         7.91438279492667   16.27649625644565   22.53647982205375

