60
CSD_code = ESUHAB | q = 0 | S = 0 | Stoichiometry = C18H30BN7NiO2S | MND = 6
Ni        2.51686691103923    2.45281003041161   14.43610342222073
O         1.66527060039202    3.37747267828059   16.41479921737426
H         1.77685840360843    4.32361272676650   16.25783427955854
O         4.57750343754031    2.29853308316516   15.53390730934764
H         5.00409017786406    3.11449856484232   15.24273719785062
N         3.00082410359452    4.11460555453818   13.99663703079092
C         3.09428118282228    5.01299860147793   13.23621887924311
S         3.30890377558067    6.32040967811453   12.37576463674135
N         2.03901257185484    0.74246630317053   14.95374605697651
N         1.47171775464627   -0.08012065071913   14.06047776545261
N         2.55852602026889    0.75656734760334   11.99048669884190
N         3.36835516695798    1.63896461410105   12.60214694629253
N         0.30776815830614    1.59652389994147   12.64906831613989
N         0.61410385109692    2.65614677888534   13.41856965546566
B         1.21031655598638    0.35196970139406   12.60974530634925
H         0.70644646566962   -0.51836922930257   11.99718887214614
C         0.34592918544441    3.14161932080129   16.86649934915230
H         0.16836658549478    3.66410485964715   17.81274512030437
H         0.24771284431241    2.07028056536745   17.02612760578926
H        -0.39935117187925    3.45515095446904   16.13280039570989
C         5.46940645884012    1.22037222796116   15.32631240068709
H         6.38296576648239    1.36390658660015   15.91328603058757
H         5.72870350090673    1.10265722564556   14.27232111170725
H         4.96637476164010    0.31725660500717   15.66430451207542
C         2.71332207900024    0.64649157440003   17.37074596454622
H         3.06766916145811    1.65941223106682   17.21288171660008
H         3.53986067522882    0.02184632273342   17.70867834351980
H         1.96027025557243    0.64726187712631   18.15841122530758
C         2.13754158672660    0.09379480575524   16.11319817229052
C         1.61186269232951   -1.19119173239053   15.95128168725769
H         1.54571865958400   -1.95659343191890   16.69816987443097
C         1.19905089926234   -1.26453956159927   14.63506015709745
C         0.56551221188827   -2.41081115967121   13.93267218140365
H         1.17079134447428   -2.72585345785581   13.08486905580794
H        -0.42043833595491   -2.13769292379306   13.56127609700784
H         0.46343460697541   -3.24486083490494   14.62209435579186
C         5.49972944450244    2.82917912634281   12.09692610807148
H         5.27313278812436    3.39582917628620   12.99518889773929
H         5.61459025612050    3.52947962009809   11.27121603788336
H         6.44578680807743    2.30110129641170   12.22201154956028
C         4.39532719072477    1.87891757254364   11.79307597010966
C         4.25167510997074    1.11434950007321   10.63124932690827
H         4.91666954279170    1.08341985746289    9.79207143306028
C         3.07024308241637    0.41760927291324   10.79225299683036
C         2.43358732580672   -0.54289244910214    9.85299091955474
H         2.27115766818531   -1.50542591194079   10.33414938910183
H         3.07754130431512   -0.68380221060835    8.98896775174552
H         1.46986677552428   -0.16814064494075    9.51323896747128
C        -0.26528210623508    4.95704063518671   13.80607027164052
H         0.62753993975190    5.08132280980765   14.41146346377393
H        -1.15364863592591    5.10634671692634   14.42074844436678
H        -0.26135668133292    5.72310989377283   13.03221915153395
C        -0.27816254713290    3.61044180719749   13.17299143655320
C        -1.19784340258065    3.14508297053707   12.22840498056522
H        -2.03736919811046    3.67658845711955   11.82834630830950
C        -0.78961185684029    1.86318835438128   11.91651209281939
C        -1.40679124622736    0.90890319826323   10.95817207103175
H        -1.65132894849414   -0.03074915857945   11.44961800361019
H        -0.72525333954654    0.69363961171475   10.13717539421626
H        -2.31644817889349    1.34275876101186   10.55157208567921

