57
CSD_code = ESUPUD | q = 0 | S = 0 | Stoichiometry = C20H32N2O2Pd | MND = 4
Pd        2.22852779494275    6.59097740104412   18.28425473648287
N         1.79486642601768    6.57828852130233   20.25308389455153
N         2.69822788646188    6.61093037614030   16.32443351847863
O         2.72027880044026    4.60505116905097   18.19571891516289
O         1.78949281128842    8.58806602282282   18.38402452022701
C         2.62931115577725    5.20698623226213   15.86621929482174
H         1.55920080700440    4.96298223812988   15.81366066363488
C         3.27592218093378    5.08859892352801   14.47915615882038
H         4.25219647734976    4.60353671468033   14.55508964909087
H         2.65380273893750    4.47880348340135   13.82393388921523
C         3.45097101414124    6.49844336215406   13.90896222518757
H         3.77408473791093    6.44632082577819   12.86442285313320
C         2.12682147220924    7.27463115289223   14.00987883841647
H         2.28860080433234    8.27297205649625   13.58275904758380
C         1.78919491048169    7.42038137451086   15.51207019998301
H         1.87352227297253    8.45506577422807   15.85362070893905
H         0.76842359967913    7.08092184825395   15.72052836611715
C         4.05722407267142    7.15481091488076   16.22167749441740
H         4.72727486199900    6.51141317265656   16.80333434639905
H         4.04414390235515    8.15012258137318   16.68286928833494
C         4.50107893723602    7.22741512607349   14.74804980631639
H         4.58493033526854    8.26389629483383   14.41668823443472
H         5.47644512695840    6.75671760916217   14.61492493247021
C         3.22951594273989    4.30040252219532   16.96060674720708
H         2.99004764028812    3.24890173084924   16.70608707201400
H         4.33863754914142    4.38138550545035   16.93835515032563
C         1.04845073356856    6.62230748857238   13.18701564745260
H         1.41192628753092    6.03395012064112   12.35358244214615
C        -0.25316030338657    6.75416650280020   13.36233803816124
H        -0.67875818147312    7.34812696609208   14.15368834347786
H        -0.95828980647867    6.27127073075962   12.70751802902505
C         0.99902057314722    7.79727623018777   20.51501260485624
H         0.00156465246671    7.59803884569154   20.10236071687967
C         0.91484081928548    8.03874831277426   22.02841168717814
H         1.57749826942930    8.85665223034485   22.32165517572644
H        -0.10164750663367    8.31392136566859   22.31140303265678
C         1.34126637783174    6.75284659908897   22.74025525683185
H         1.14095185575430    6.82969945290664   23.81329357837607
C         0.56865668096697    5.55838704460925   22.14365402894956
H         0.85410507342300    4.66008660011300   22.70600344907175
C         1.02850096880149    5.40483360824253   20.68015729303933
H         1.67043083724065    4.52987455215907   20.55099632045177
H         0.18021044530083    5.28668096925091   19.99882760882891
C         3.07329342036551    6.60175115937936   20.97359839802557
H         3.60381997821067    7.51989608004851   20.69750677578920
H         3.66031461614042    5.74266072943443   20.62592706954538
C         2.83444983132091    6.53648147604168   22.49415789403689
H         3.13899122249478    5.56861004364513   22.89612224182928
H         3.41197916338077    7.30629896640950   23.00843262032377
C         1.58693301551014    8.95874024857911   19.68781170038059
H         0.87450313622971    9.80631043999109   19.72904077082788
H         2.52480867194331    9.31629214965566   20.16698505721983
C        -0.90614002892228    5.74815617526994   22.37267379122840
H        -1.15007387044315    5.85201533495006   23.42439991590303
C        -1.88473607242613    5.80040372709437   21.48942732921663
H        -1.73829296444682    5.70446564323227   20.42710440192696
H        -2.90556215567207    5.94122727221142   21.80192822884890

