97
CSD_code = ESUSUH | q = 1 | S = 0 | Stoichiometry = C48H45IrN2P(1+) | MND = 6
Ir        8.14407874452080    4.37781313487358   -0.42664510647497
P         5.98688216671434    3.80845715575480    0.31251807576726
N         8.82233527532777    3.32976820517037    1.24964586182391
N         8.71914477041961    1.76449373390941    2.83079774500514
C         8.18056980127319    2.86551606122244    2.28518517336002
C         9.98034955549178    2.46801775541624    0.99796578407582
C         9.89255741525472    1.35339376255558    2.07202025147694
C         7.02859456343359    3.53374204141679    2.90041005207055
C         5.94143885412087    3.97557396250666    2.13776057017358
C         4.85735352443330    4.55496336874574    2.79244923098262
C         4.86457605634823    4.73099816619176    4.16437999202354
C         5.96662863066101    4.34230405768199    4.90828282161215
C         7.03862020840974    3.73727031797999    4.27929676127456
C         9.96005520563832    1.92048687098692   -0.40548834469114
C         8.78252486005058    1.38589786429709   -0.91989188987997
C         8.75686051059549    0.86020392569121   -2.20076348607685
C         9.90434983672932    0.85995947399215   -2.97481770552224
C        11.08442100684457    1.37178814766754   -2.45885344010450
C        11.11301202701894    1.89801057464924   -1.17999369173344
C        11.10753529566817    1.27019732089171    2.95640884245542
C        11.88586120872882    0.12173634638880    2.97783832445023
C        12.99909709160780    0.05025375110911    3.79728514471919
C        13.33747328334061    1.12289670688149    4.60475445208871
C        12.56202613779380    2.27062753056913    4.58976772081973
C        11.45234980096007    2.34511555321707    3.76782838429944
C         8.14361511892187    0.84567318312543    3.78465953729343
C         7.91276105981985   -0.49966961440710    3.13829361584451
C         8.56868824076800   -1.63628721113629    3.58797157897886
C         8.36492602155401   -2.85234258791789    2.95779152975567
C         7.51622856597578   -2.93772653391868    1.86712317233845
C         6.86419294652532   -1.80454789315781    1.40949997064612
C         7.06093654977824   -0.59245085571822    2.04459540979562
C         4.64269562567690    4.95136040919883   -0.15142916971552
C         4.83217697902503    6.29888398264671    0.15890838307603
C         3.87424094881336    7.23337793373268   -0.17783857496795
C         2.72254280314208    6.83404417146576   -0.84135529146581
C         2.53683548749327    5.50128107853287   -1.16428413253019
C         3.49335611930998    4.55792774369545   -0.82378329667119
C         5.18036926627252    2.18726212807576    0.06253143680929
C         5.31865943406864    1.59200382570966   -1.18913782452952
C         4.70536887205153    0.38299901021684   -1.45988030491785
C         3.95069555689698   -0.24300597142435   -0.47981389424648
C         3.80848716511821    0.34442320778901    0.76666877861519
C         4.41998565098608    1.55596446381578    1.04161751471268
C         7.33032491933783    5.72827073059037   -1.94067369434136
C         7.94749334371232    7.10983905697988   -1.90840264468324
C         8.79330451790610    7.33898409941765   -0.64342992771170
C         9.44830994858267    6.08465876247114   -0.12143241356901
C        10.14546792487148    5.16783720063224   -0.89762499791821
C        10.37748086931828    5.31891026514208   -2.38316180139217
C         9.28212590200246    4.62433376303636   -3.21033619291988
C         7.93292412162954    4.61930531495389   -2.53513039547474
H        10.89425689841704    3.05361336397481    1.15440095549449
H         9.71003067729976    0.37559459130288    1.60644427042741
H         3.99775752160926    4.87343352826731    2.22200924059040
H         4.01323273694205    5.18158851752733    4.65059913313214
H         5.98957618631170    4.50418217392383    5.97448668732750
H         7.90360851494814    3.44206846278881    4.85471600633890
H         7.89659511297847    1.33331921612170   -0.30135616138890
H         7.84168514742912    0.43931392834651   -2.58881645440076
H         9.88390490487851    0.45193096625816   -3.97379794285895
H        11.98447752916863    1.35961408106401   -3.05439521420229
H        12.03717338150253    2.28738823745470   -0.77777577241847
H        11.61702367736426   -0.71643862394018    2.35097962975862
H        13.60067353388206   -0.84559961235088    3.80708279178911
H        14.20337921544631    1.06524961064699    5.24587296953895
H        12.82213050627487    3.10823543317743    5.21902152665356
H        10.84613975428374    3.24096890117347    3.75661328921687
H         8.82741599415293    0.73927478767378    4.63443816964322
H         7.19572108657561    1.25566482113907    4.14096327790760
H         9.23860255950315   -1.56959610356042    4.43288583050126
H         8.87395444602456   -3.73345617036358    3.31707652710395
H         7.36271943967695   -3.88552796923226    1.37474611240362
H         6.20022829579161   -1.86142937034853    0.55995785321616
H         6.54799137702652    0.29193869433802    1.69264916104300
H         5.73969677163134    6.59523756429464    0.66839934836388
H         4.02183252720391    8.27322985354849    0.07157121503033
H         1.97349769676949    7.56342610667719   -1.10787287460092
H         1.64313584969654    5.19015984038863   -1.68338701075114
H         3.33869310723287    3.51973995730411   -1.07927421761668
H         5.90735200910211    2.09310161995692   -1.94603708028739
H         4.81158085586776   -0.07139226398468   -2.43360640701735
H         3.47057379435060   -1.18683512290774   -0.68832325942032
H         3.22051085497746   -0.14218931429990    1.52993433903913
H         4.30260531353489    2.00995778905344    2.01575300314992
H         6.24417424350642    5.73859526084963   -1.92352550652745
H         8.55004536154505    7.25387945659979   -2.80467335545068
H         7.14904053844924    7.85209925385617   -1.93396642188500
H         9.56943783747277    8.08440749121085   -0.84172759249619
H         8.15593875063324    7.74402310476986    0.14419584426902
H         9.69248910242490    6.13250831636096    0.93855758432208
H        10.90460585494830    4.58274169770780   -0.39410068942822
H        10.43766331028206    6.37755544973905   -2.63485956948313
H        11.33843795625680    4.87078807714533   -2.63855121284707
H         9.18516962665003    5.10554515998652   -4.18854346774563
H         9.57553575397134    3.58813628237879   -3.38813983285392
H         7.26801459509793    3.84615750066456   -2.92341261737500

