134
CSD_code = ESUSIV | q = 0 | S = 0 | Stoichiometry = C62H48BF19IrN2P | MND = 6
Ir        6.89319923621388   10.02953130914801   -1.71746038275739
P         4.69951907552771   10.73068531216476   -2.21369633245139
N         7.43874243381670   11.40072851980258   -3.20477654590342
N         7.48364261046864   12.51663409161742   -5.13709354565088
B         3.89398085244393   18.10990841612310   -3.97452447773853
C         6.86578733474546   11.60257382534210   -4.35482056879780
C         8.53267800321375   12.36974296555884   -3.05321921998592
C         8.71703084824090   12.93929952970664   -4.47677053807917
C         8.23305587012141   13.42495384786424   -1.94943822957782
C         8.13351111338717   12.71879534702464   -0.59583973331508
C         6.92703473719538   14.16181413780929   -2.23668297065105
C         9.37693073982591   14.43902971294285   -1.85666791865431
C         9.98193327028854   12.39893325239632   -5.20957307075159
C        10.04126279700164   12.93306018128881   -6.64550787389990
C        11.23222047436363   12.90006920091923   -4.48101870926087
C         9.98655863372495   10.86888094845061   -5.26425024435708
C         5.67917119551355   10.89221166195924   -4.84879439260465
C         4.55844808311561   10.66079839047069   -4.03870868262146
C         3.38368433345361   10.21653153401137   -4.63922029444062
C         3.33536882985678    9.91979502958137   -5.98863966072857
C         4.48555103207681   10.00809857820446   -6.75383516886545
C         5.64296034209689   10.50822514458363   -6.18857349291467
C         3.36643097692743    9.56017638231722   -1.76121789035575
C         2.38972995227912    9.87043098726865   -0.82366858505115
C         1.43670081642771    8.92731426212269   -0.47395757122192
C         1.45504572185660    7.66865297038161   -1.04794398226234
C         2.43746673958824    7.34581949498481   -1.97280905849431
C         3.39130956477349    8.28107730555521   -2.32044518252586
C         3.93974970257762   12.30041055314602   -1.68598672152614
C         2.95300871095856   12.93819939464095   -2.42956553999643
C         2.30970085618533   14.04552869760683   -1.90528563039354
C         2.65015886961144   14.52553230458349   -0.65147312273304
C         3.64779890502918   13.90441759246068    0.08218634589215
C         4.28760499874224   12.79187810291475   -0.42984467702057
C         6.20916661016982    8.28935464560449   -0.59897598242286
C         6.95317222975170    7.01550638342116   -0.93783880581006
C         7.81190012870528    7.17423411771923   -2.20329684176150
C         8.34163015044098    8.57416103439267   -2.38977368846798
C         8.94155359270275    9.33769379416868   -1.39162226342702
C         9.19060486906489    8.84835103051381    0.01851730637830
C         8.03209209243758    9.20686267048625    0.96718058554012
C         6.69369468045825    9.26829468623712    0.26957192036214
C         6.85515791968423   13.33719351395629   -6.15599208294615
C         6.09777487607601   14.52207775804861   -5.60511948621535
C         6.69737288906657   15.75759880408340   -5.39061174595657
C         5.98328883021349   16.83678506248773   -4.89617805140531
C         4.61694173879796   16.78485487028326   -4.61695913430367
C         4.03108505682161   15.54675342466310   -4.84672120013102
C         4.74464729760684   14.45242836571131   -5.31868723428226
C         3.77702649274121   19.34439264792050   -5.04430631062701
C         4.26575163645842   19.36588697395485   -6.34390489264321
C         4.08464761853570   20.44338431953623   -7.20655986255541
C         3.37421099550152   21.55747616071682   -6.78750490770559
C         2.84500222339293   21.56606549172399   -5.50304144457233
C         3.04905703050935   20.47379976433068   -4.67213838105589
C         4.85236823061708   18.47340653240294   -2.69035468352762
C         5.16506746750111   17.45613235593085   -1.79137338681795
C         5.99259986396386   17.62446083900823   -0.69224237906997
C         6.57218748042869   18.86206100366284   -0.45218577532433
C         6.30743105219537   19.89882704153039   -1.33378575586644
C         5.46939843450048   19.69114915346072   -2.42847594072229
C         2.34178610712235   17.80576825594790   -3.53669661501238
C         1.83698813419560   17.74474748612778   -2.24453744613593
C         0.49695821601693   17.49159325108139   -1.96115862379492
C        -0.41241309993455   17.31234286536791   -2.99117792552770
C         0.04430761476007   17.39687498133006   -4.30021504753519
C         1.38918393893500   17.64024928951438   -4.54255303649026
F         8.01495109561242   15.89422292870870   -5.65733123382722
F         6.66806954518389   17.97256237146252   -4.68406953786888
F         2.72704458990871   15.32995912776959   -4.60925654281443
F         4.09553041268466   13.28461003531424   -5.51968730604074
F         4.93335692562785   18.31484624962983   -6.85277798097533
F         4.59132883299862   20.40014113739476   -8.44745142035162
F         3.19118750272457   22.59873871792055   -7.60790104537246
F         2.13482933422015   22.61962947507887   -5.07880165726894
F         2.50488612200654   20.53431356483996   -3.44376142122850
F         4.64817961407181   16.22371883228512   -1.97351600159509
F         6.24957700229314   16.58990012160817    0.13178917853783
F         7.38243014824168   19.04024054537983    0.59941909421794
F         6.86978886055900   21.09739206874454   -1.13678974232736
F         5.30806945409891   20.74064027566455   -3.24398066338927
F         2.62763896495817   17.93073848868972   -1.17373625467993
F         0.08870600002402   17.40697068223558   -0.68464387683286
F        -1.70096182804355   17.05817028014973   -2.72981215946138
F        -0.81163842166386   17.23560421902661   -5.31871054779562
F         1.76684777946909   17.69176587259407   -5.83145788577323
H         9.43187255781665   11.83784946604575   -2.74128713037666
H         8.78026645822511   14.02615638258344   -4.46886700566244
H         7.86635677392658   13.43568276451124    0.17604787304234
H         9.08289249349255   12.26214763909643   -0.32693667386130
H         7.36004504179153   11.94458679117857   -0.62259540726858
H         6.60282887229236   14.69570360752313   -1.35084762676418
H         7.04735252195177   14.88466017229176   -3.03773088336654
H         6.12967948547798   13.47425568799469   -2.51274323211291
H         9.16911795866051   15.13327184067227   -1.04650901477362
H         9.48677273500410   15.02100667159225   -2.76702701032769
H        10.32304040803788   13.94558095161627   -1.64691776858845
H        11.01818201220928   12.71681482129286   -7.07218339680897
H         9.90170737485253   14.01119903604453   -6.66746342804519
H         9.29716517709892   12.45461710312283   -7.27707972173919
H        12.12218255212636   12.54197884419530   -4.99239170447794
H        11.25781063830539   13.98653658642124   -4.47503648640751
H        11.27692341817616   12.54997430567517   -3.45381019058892
H        10.81029060872880   10.52810836507667   -5.88676041440154
H        10.11326885581019   10.43031726319814   -4.27806333347792
H         9.05963044628539   10.49386287275069   -5.69340956284542
H         2.49431693870786   10.09164553221168   -4.03935393870240
H         2.40897110110930    9.59121001681528   -6.43346995412431
H         4.47682165518551    9.71137582423908   -7.79120110474619
H         6.54032290523431   10.58319611510912   -6.78628927855167
H         2.36432716100295   10.85059559499544   -0.37089798471994
H         0.67675002749356    9.18138019118751    0.24935232169653
H         0.70891022989167    6.93803017040334   -0.77549076271325
H         2.45904733196408    6.36256625228075   -2.41874063248741
H         4.16413737882459    8.03214158886762   -3.03574612192857
H         2.68873652677068   12.57447770938684   -3.41159796733909
H         1.54149501428805   14.53513009600550   -2.48333682038454
H         2.14544753544988   15.38669079483772   -0.24396779494022
H         3.92569551630453   14.28774451518598    1.05203513307473
H         5.05978376998533   12.29394166570495    0.14157041332511
H         7.56839725999141    6.71849895723810   -0.08898362961515
H         6.22779300592189    6.21789307099073   -1.10350663319872
H         8.65319942392621    6.47426295903639   -2.18011754126181
H         7.20861139187074    6.92263310461449   -3.07739156040409
H        10.10532879046601    9.30688296672491    0.39728156910428
H         9.35609999056294    7.77129900498487    0.00349558027930
H         8.22770089522092   10.18120014967574    1.41799083328266
H         7.97466802054041    8.48071048288128    1.78394779391182
H         7.63302004173546   13.70677612766492   -6.82226230088955
H         6.15462639381594   12.72723764786548   -6.72652710619807
H         9.64700892752134   10.09657136585288   -1.71430715430776
H         8.60561653009060    8.79550448456513   -3.42213225932023
H         5.13085126702840    8.18682437348923   -0.66013556943184
H         5.94988658270914    9.85199550951832    0.81471438370552

