64
CSD_code = ETACEH | q = 0 | S = 0 | Stoichiometry = C21H39BrNiP2 | MND = 4
Br       -2.19087925532292    0.66825208208892   16.42541648239843
Ni       -3.38883641074099   -0.26507479393945   18.15867232688586
P        -4.81514582190163   -1.80609572408943   18.91438717869237
P        -5.15315175405514    0.95360262149023   17.60756221861808
C        -1.76217111275859   -1.07053900283220   18.94217165766382
H        -1.87784943934279   -2.10204365107944   19.29085182826794
H        -0.91848306347312   -1.00625132905959   18.25207704112111
C        -1.66797198118065   -0.10940496421633   20.04918120293261
C        -1.96278274447423   -0.49206750504436   21.36624057047680
H        -2.20733298463657   -1.52518533120215   21.56924327389650
C        -1.90650077316395    0.41498965305178   22.40501042272880
H        -2.13806312432385    0.09288740767474   23.41097636166758
C        -1.54640768067252    1.73187822195152   22.16502940894188
H        -1.51119280799610    2.44208342848224   22.97818413257948
C        -1.20661378747255    2.12198098286831   20.87882687575087
H        -0.89512499476699    3.13912872455060   20.68863981193181
C        -1.25735515334368    1.21875717359534   19.83551626100851
H        -0.95902591299276    1.53055402537660   18.84418182401425
C        -4.78180559540847   -2.77841037267454   20.51366046667388
H        -3.74867704580504   -3.14893921489196   20.56919313952042
C        -5.02546676882021   -1.84639545033352   21.70183510413566
H        -4.64775113858963   -2.29705785580210   22.61837982928894
H        -6.09046380505523   -1.66742275550525   21.83938167728414
H        -4.52490015654641   -0.88924265885192   21.56473127073560
C        -5.71616874884109   -3.98103422329906   20.59945903931586
H        -5.60903932225036   -4.44373507725485   21.58029376166689
H        -5.47957129584068   -4.73313770707032   19.85161873864991
H        -6.75595554747609   -3.68016611699327   20.48798160973587
C        -4.84953847454138   -3.15188681581621   17.60590390616954
H        -4.23817384408533   -3.95975398992269   18.03132662498563
C        -4.14453553326371   -2.63415380557045   16.35222136200509
H        -3.95123745465163   -3.44629840891920   15.65347229223680
H        -3.18258924503715   -2.17370617750296   16.60853247238538
H        -4.76319704704694   -1.89311618747547   15.84774117782396
C        -6.22316480425263   -3.69793847218297   17.22899434011069
H        -6.09617561983146   -4.52074284008821   16.52630078991545
H        -6.81906920132108   -2.93324359260788   16.73432438485859
H        -6.77669761122837   -4.07314995740009   18.08531017506420
C        -6.53033058937437   -1.09112262362254   18.95664506109089
H        -7.27964419720002   -1.87851811215510   18.84625915033342
H        -6.64481523898452   -0.66388490078865   19.95508807675543
C        -6.72484898841007    0.00237478876464   17.91016727762410
H        -7.53297560335198    0.67898129056576   18.20214492512124
H        -6.99361486827377   -0.45109449065806   16.95167669436728
C        -5.49021999172703    1.75221787717392   15.95572879170241
H        -4.63337662943857    2.41806083664813   15.79512404165965
C        -6.78236148068392    2.56201732030318   15.90059423000362
H        -6.87273853099786    3.02203305219534   14.91760729172265
H        -6.79790753151833    3.35764845814564   16.64104218260240
H        -7.65302713542043    1.92641758246882   16.05121804383057
C        -5.46048955826136    0.71365806299499   14.83593810128135
H        -5.54295892324052    1.21221688349959   13.87214278471668
H        -6.28704101168828    0.00819562346542   14.91665788962290
H        -4.51738965164838    0.17174534185572   14.84649435589465
C        -5.28403408856538    2.39139867697949   18.79085282563466
H        -6.28775256976138    2.82801216677113   18.72060232079353
C        -4.22585749159706    3.43229584435082   18.43371412408007
H        -4.18620907717573    4.20642121144461   19.19891077319966
H        -4.43460626237999    3.90923406168418   17.47911982072358
H        -3.24344235550135    2.96345557782362   18.37654364750065
C        -5.05194809642530    1.88662132976002   20.21281197941659
H        -4.95626087973501    2.72274284646090   20.90450503680956
H        -4.12347694147775    1.31169219308378   20.26064506618764
H        -5.87350524459351    1.26085876098370   20.55553446497717

