59
CSD_code = ETAFOV | q = 0 | S = 0 | Stoichiometry = C24H29Cl2NO2Pt | MND = 5
Pt        2.98880478984075    2.33085893935609    6.31459245116344
Cl        5.11143306487924    3.18502907517392    6.82031076974931
Cl        0.86065713709416    1.37279892314704    6.11087621632116
O         2.04991469915230    2.19337331600221    0.54016072327491
O         2.91368991346612    3.23127564713896   -1.26275733307197
N         2.96250900763391    1.66038782628315    8.19861221650841
C         2.43728691710833    3.22931121109523    1.40997422358936
C         1.45313633534581    3.92087886470217    1.97323263118797
C         1.56995911487163    4.97613873214168    3.02242954036051
C         1.56902759093018    4.34034353648825    4.43390732947138
C         2.89029131144446    3.65293290590270    4.61965557894735
C         3.14391654719612    2.36837874365742    4.16341070018605
C         4.50363851997602    1.97109153376110    3.66214058459095
C         4.53454045236929    2.05182229752694    2.12582667407383
C         3.92255507287314    3.35167455578308    1.57854207644770
C         2.35381487200058    2.28542482483665   -0.76437010164569
C         1.91352597415549    1.08790440517674   -1.52101936583574
C         1.28318526760544    0.01254186063047   -0.90043251482739
C         0.89351805600131   -1.08073781839498   -1.65136354814561
C         1.12832714967608   -1.10828881539754   -3.01719872179814
C         1.75577157633990   -0.03952811490781   -3.63804919966031
C         2.14808540496812    1.05611623241303   -2.89371103429381
C         3.44995193647988    0.44871906015440    8.47661528308659
C         3.44199570242659   -0.03434480839436    9.77497861778467
C         2.92594998883981    0.74297065832396   10.80548846693482
C         2.43061423221944    1.99940968405825   10.47671678751180
C         3.99899510143366   -0.33359314436770    7.32932297434917
C         2.45976272795036    2.43625548396755    9.16218509864927
C         2.88349000294965    0.23619735398419   12.20913324249870
C         1.94279082623354    3.77395379316728    8.74641407956370
H         0.44297548363228    3.64691186960056    1.69862761031049
H         0.71582797283785    5.64937639200556    2.94287255616969
H         2.48023543420065    5.56250072373446    2.89355814547355
H         1.43453267022165    5.12939462639486    5.17640894239917
H         0.74163214715283    3.63349670606977    4.51069800877081
H         3.73706831350370    4.33805538804385    4.69719541053855
H         2.31568222955512    1.77956876540062    3.76865660713075
H         4.74996080605864    0.94745222891997    3.95745316739625
H         5.26005286986154    2.63974421427247    4.07748227331822
H         5.57351039922562    1.97381980227757    1.80111229829638
H         3.99191446962597    1.20198102892002    1.70599317068957
H         4.16164580019175    4.18881913415054    2.23029064082550
H         4.34764483532214    3.55346828618366    0.59174579528440
H         1.10086842134558    0.04193216570585    0.16252310729254
H         0.40349911067466   -1.91511604165592   -1.17175997452946
H         0.82099699067926   -1.96502867156703   -3.59887644062733
H         1.93793322911101   -0.06309146449562   -4.70210986542203
H         2.63840115737559    1.90116859350556   -3.35291531372287
H         3.84030769904397   -1.01583146871806    9.97986263480838
H         2.02209216044830    2.64138874485459   11.24145773845265
H         3.22771065540871   -0.44915229052241    6.56251772492088
H         4.33744848641722   -1.31613375840580    7.64619016361552
H         4.84003769248564    0.21054807086925    6.89161434873693
H         1.95148430725360   -0.30583084360311   12.37167400418410
H         2.92439073416173    1.05712898721757   12.92036511147830
H         3.70737370011814   -0.44675446019496   12.40021466893546
H         2.74485141907374    4.34192443729676    8.26678969464739
H         1.56899031390269    4.33563827258730    9.59781929153558
H         1.13519119762259    3.64172379789672    8.02161403166868

