84
CSD_code = ETAMIV | q = 0 | S = 0 | Stoichiometry = C40H37Cl2NOP2Ru | MND = 6
Ru        6.98427258153883    9.38874907304563   11.18546522118871
Cl        4.80417318803524    9.74650126980671   12.00162555616636
Cl        6.92614004476203   11.41827126010702    9.94314696088233
P         9.15759723862319    9.34824816936862   10.39625277542695
P         6.15298571328536    8.03142966133818    9.53714806765566
O         7.20409030175770    7.84886359355074   12.37815779383820
N         7.49102545932000   10.34237745184473   12.90885590134681
C         7.50476552611514    8.10273610825691   13.57408199594096
C         7.79547813380925    6.97817426410390   14.47161123324534
C         8.79654967222913    7.03284253926322   15.44216863647988
H         9.39665852061841    7.92477469142410   15.54956180988875
C         9.05187756150643    5.92993966063190   16.23515336527936
H         9.82901452309114    5.97839730378337   16.98405935189707
C         8.32410777610840    4.76209412937817   16.06850434024228
H         8.52496626477662    3.90665349128252   16.69635325766188
C         7.34841345223985    4.69161312942937   15.08645992040623
H         6.78761683721353    3.77959033455997   14.94391240164591
C         7.08892786638080    5.78734407799691   14.28817138662232
H         6.32967477367808    5.74590467224470   13.52086863495405
C         7.58231596196621    9.49753880757669   13.96360938717781
C         7.50880371326752   11.64910620390864   13.12226029062805
H         7.41398878706599   12.27976716853845   12.24649915299737
C         7.62945030645050   12.19706908363642   14.38576915148387
H         7.64296315453020   13.26792742400441   14.50624575201532
C         7.69654525951236   11.34617217805629   15.48314169977518
H         7.75540351134354   11.74373318226636   16.48516018746109
C         7.66260047682508    9.98391132475985   15.27229874859495
H         7.66054916292220    9.29076854321002   16.09804685352558
C         9.61328398155746   10.03315242692605    8.74597851826255
H         9.09125814148760   10.99117824131767    8.66946007477653
H        10.69373782683339   10.21350976288913    8.76129738164647
C         9.24434515213842    9.17184445283172    7.53946649732399
H         9.78678361097171    8.22209921546455    7.57416397702382
H         9.58529628293124    9.70840741458579    6.64997778656528
C         7.73922295427853    8.91052272362526    7.41270131621648
H         7.19962642496699    9.77733235104187    7.81060042102939
H         7.48177586478425    8.82847265506610    6.35556102686903
C         7.28450435548604    7.63504704156317    8.13711331477247
H         8.15029816751430    7.11123085674903    8.55237985345550
H         6.76341270812334    6.95724179174477    7.45463947144538
C        10.11777445479636   10.39629060429939   11.53161705046465
C        10.21042244918605   11.77248385069434   11.34641880781534
H         9.80363367200586   12.22397407682820   10.45349172455392
C        10.79480075073450   12.56338160049330   12.32031439473606
H        10.86592096059750   13.63080053383400   12.17077688826883
C        11.27507373940624   11.99485905445117   13.48808818927980
H        11.72448022671892   12.61616069542844   14.24852634849959
C        11.16987490939087   10.62686270177414   13.68514516966070
H        11.53656697696019   10.18170673976633   14.59921018040099
C        10.59057703806916    9.83109862122766   12.71569315178159
H        10.49759101197457    8.76231538337492   12.87147171728469
C        10.12867887813984    7.80343771010418   10.46364296728558
C        11.49587973381084    7.81409305517824   10.20032671406630
H        11.99278409340572    8.74530908581130    9.96596238750022
C        12.22054432927776    6.63857323168120   10.25513925759472
H        13.28081405410909    6.65109499669723   10.04831317774076
C        11.59196561767626    5.44581722211591   10.57974706167971
H        12.16345008488572    4.53036040245713   10.62347635069199
C        10.23518880019991    5.43160838304490   10.85479517740292
H         9.74176847706397    4.50778418203475   11.11944841139678
C         9.50593739484578    6.60666590103796   10.79529390488802
H         8.44649464887701    6.60245259403788   11.01775579190485
C         5.71702182866451    6.40696157937572   10.23171307737193
C         6.36592501904927    5.21486025391688    9.93064461259115
H         7.16903122107513    5.19059284556018    9.20842857344933
C         5.98428408335513    4.04066180562420   10.55847173163108
H         6.49246967890427    3.11707512512338   10.31892920605398
C         4.95852051526391    4.04481793224375   11.48782225774656
H         4.66754897751087    3.12593894516802   11.97637825327409
C         4.30784703500369    5.23121090178610   11.79183937838259
H         3.50919255297488    5.24005322134192   12.51970871651601
C         4.68473792358608    6.40563481365106   11.16867494950247
H         4.19476398361475    7.34022009697961   11.41115518180789
C         4.61693996015453    8.44877194929441    8.65907871158729
C         3.92114223471538    7.45245023935371    7.97794328103550
H         4.28539462903036    6.43323163469540    7.99484660937714
C         2.76138974987174    7.76426641781808    7.29574235826096
H         2.22029981495165    6.98934305989382    6.77123351434437
C         2.28863356189794    9.06790727761457    7.28897324398242
H         1.37784667271868    9.30631545007402    6.75867943507227
C         2.97793843759740   10.05911310915056    7.96561578878384
H         2.60770105062007   11.07352398377920    7.96583723214099
C         4.14118780832751    9.75344981988913    8.65112560121545
H         4.67325971883226   10.52423118008277    9.19107398721689

