33
CSD_code = ETARAT | q = 0 | S = 0 | Stoichiometry = C8H14N8O2Pt | MND = 4
Pt        8.95263922889481    5.42638910468721    6.05792420366209
N         8.55243025696708    6.58015019466132    4.31247586774415
H         7.59464864126338    6.82034182030498    4.60969747945363
H         8.51261088259694    6.13335595677226    3.40118509839506
H         9.08770841749295    7.44220043362373    4.23722016393000
N         9.60351125015474    3.67101867578994    5.04180171304573
H         9.81502270670074    3.70311354735286    4.04875086597544
H         9.05806908688689    2.83500003375794    5.23921340926571
H        10.48697873469211    3.61186087495407    5.57040205989420
N         6.85923943398501    8.60692543617024    7.73128133905045
C         7.25476047900004    7.53465346868536    7.03514548321908
O         6.51174814611622    6.87889008875261    6.28166045163387
N         8.56461375847923    7.08592200474670    7.12386532938783
C         9.47126627534520    7.70953986284398    7.87992976496689
N        10.75144871997360    7.27478658273935    7.83535902703597
H        10.93766696286985    6.35379965442261    7.44041146910892
H        11.38717510860257    7.59328804612025    8.54610605801864
C         9.06716539193759    8.83125160427835    8.61787130554447
H         9.76536292681475    9.35909281136479    9.24440485812143
C         7.74510972632162    9.21355699196597    8.49432817865781
H         7.36829077592428   10.06888125712232    9.04197028748472
N        10.60650197690262    3.30285249566105    9.22874705505059
C        10.37694246776698    3.97549285863631    8.09489543613491
O        11.26223119134112    4.28734059227865    7.27703754909664
N         9.08899505947130    4.37088845970569    7.76335045055242
C         8.04350580635623    4.08414397643004    8.54259759904587
N         6.80727671110703    4.41420070517558    8.10407349637048
H         6.72583658084529    5.08010003917051    7.33680579616542
H         6.04775156830493    4.39430888450740    8.76244101450930
C         8.27268672786386    3.38530589608912    9.73647256983887
H         7.45829132478247    3.13977912524872   10.39609584289295
C         9.58082747152413    3.03493294733361   10.01060836704273
H         9.82568620293781    2.49793556904582   10.91897040960019

