111
CSD_code = ETATAV | q = 1 | S = 0 | Stoichiometry = C59H45N2O2P2Ru(1+) | MND = 6
Ru       16.30113988311683    3.29295498055343    6.69973513467867
P        14.09337385731049    2.69628002030439    7.16506860738890
P        17.59565181338202    4.69013734617521   10.87704060439136
O        15.25313731822613    5.71515084486232    5.45903817895429
O        16.90396984826652    1.25281735024578    6.95221169476966
N        15.97513327434452    2.97283658040370    4.65025873109788
N        18.31838911708843    3.43152902514456    6.29867195110683
C        16.67667353657788    3.58976831639398    8.61578467832358
H        16.64137416542975    2.76361709401757    9.34450937923704
C        17.11037574246793    4.77461893517049    9.14757124935627
C        17.08185351370091    6.03472891534331    8.48601827714450
H        17.44995108822160    6.89480748531328    9.03333454818523
C        16.52627061327767    6.22578548065584    7.25550628789120
H        16.43959229935308    7.23940290819511    6.87892543217236
C        15.97982743692221    5.18191109689844    6.45745900692413
C        18.18492053610705    1.14707582837815    6.95036784831911
C        18.85984536119363   -0.03851340095778    7.26496285414134
H        18.27764535060901   -0.89917292789086    7.55767645444480
C        20.24309117785282   -0.11679037142764    7.18909707416418
H        20.72403320414406   -1.05210329159761    7.43632585198505
C        21.01326824044402    0.95769638781442    6.80058698554073
H        22.08691512852549    0.87597803751744    6.73177606945753
C        20.39985313610573    2.17641236923757    6.47656469363391
C        21.10158743111030    3.32909629265332    6.06439849931949
H        22.17749257673565    3.29274815639065    5.98063125036592
C        20.40337589865064    4.46922270836707    5.77291112380821
H        20.90535641204097    5.36548223609009    5.44463490549559
C        19.00872856670030    4.48457357717844    5.90581767865270
H        18.45623123709811    5.38831991891910    5.68579120877478
C        18.98429545678500    2.28206645766702    6.56874593182278
C        14.73015956959708    5.04594124937186    4.39946713955942
C        13.79920869347376    5.77870467542435    3.68235936633612
H        13.50722757442833    6.73932829991273    4.07708109901506
C        14.65127863417880    3.35088407452482    2.65279209072116
C        13.71511715128720    4.13304074006293    1.95311865705088
H        13.35836413255972    3.77949032379563    0.99829502205932
C        15.12588694005160    2.13304168602031    2.12352306443319
H        14.76694593699024    1.80121251739190    1.16147189389781
C        16.03096598946544    1.40172386000369    2.84056483105457
H        16.43370995384394    0.47405071810638    2.46757290252589
C        16.41402589120035    1.85488683534378    4.10575124713042
H        17.08713240506895    1.24577459613826    4.69552144884192
C        15.13888428062268    3.76557141942382    3.92850926176811
C        13.43252020641617    1.60437898835675    5.86432288484523
C        12.73448089945392    2.11333804503037    4.77150536336682
H        12.50167454759531    3.16828081329191    4.71720132720354
C        12.33496166432456    1.27046547303030    3.74993653494932
H        11.78191467704170    1.67244289025675    2.91390270842938
C        12.64731554308787   -0.07778126727781    3.79512337925147
H        12.33522755132480   -0.73185400568969    2.99517118120485
C        13.36451847531118   -0.58398290457522    4.86715413903165
H        13.61705576809245   -1.63325199207249    4.90076862864353
C        13.75790191454974    0.25072295840003    5.89661873093465
H        14.32280418534964   -0.14182924965208    6.72944895278830
C        12.83023600084014    3.99890498052950    7.36913763281710
C        13.24014793014303    5.18252614823359    7.97472538731227
H        14.28173837441766    5.28854496072388    8.25369890446614
C        12.33731705340925    6.20352562204364    8.20858427905246
H        12.66807780641089    7.12089610813456    8.67291712010229
C        11.00995504772174    6.04811570560122    7.84347251149869
H        10.30379607903371    6.84627078789469    8.01476869988652
C        10.58759530196378    4.86117438665810    7.26707733396286
H         9.54981164478735    4.73040397406944    6.99899980360015
C        11.48741347240358    3.83490141108208    7.03766470216458
H        11.14183348939818    2.90524011215174    6.60860908768082
C        13.79077188018880    1.70471828033871    8.67753541976797
C        12.59827453323996    1.78497919488037    9.39052526172341
H        11.81765698388868    2.46160756421753    9.07646519943031
C        12.40136979800354    0.99383384552528   10.50847383167270
H        11.46724059458046    1.05600738313027   11.04715786076713
C        13.39021680135321    0.12368766836408   10.93487910767939
H        13.23112935580923   -0.49297795279272   11.80667425221168
C        14.58049846723098    0.04159131339125   10.23251324424612
H        15.35420724082673   -0.63880651213704   10.55722966102618
C        14.77936708168296    0.82314360290844    9.10900873718172
H        15.70097833664654    0.74615577307794    8.54911263206217
C        16.28930348607612    3.80621247710877   11.76270120226743
C        14.96781439129266    4.13353298955822   11.46251449696758
H        14.75822856961527    4.87891369739444   10.70701971361765
C        13.93722016758072    3.49512887876655   12.12347361799882
H        12.91423225672227    3.75043647982584   11.89435620379828
C        14.21992452251575    2.52683365306033   13.07507700460562
H        13.41329959014263    2.02983124776419   13.59102862748753
C        15.53284822945243    2.19354405327639   13.36385804497666
H        15.74924517500596    1.43477511443198   14.10018415761372
C        16.57376576615484    2.83152705117291   12.71131259333860
H        17.59931878277606    2.57090036160705   12.93204395546116
C        17.83788833768217    6.30915379768064   11.63802439553397
C        18.99194513356188    7.01847737896743   11.30773469410275
H        19.72108447008605    6.57310058306478   10.64313783935773
C        19.19579039825766    8.27742699570907   11.83965271949897
H        20.08880203554966    8.82933233091017   11.58934006373097
C        18.25354862917908    8.82897564205829   12.69543350437565
H        18.41657199946514    9.81099884349362   13.11166405506530
C        17.10523381165272    8.12403457740860   13.01946167622023
H        16.37581860607443    8.55623227998064   13.68718346015632
C        16.88969102506674    6.86332031816333   12.49075123425773
H        15.99795200820542    6.30667688704828   12.74292757591345
C        19.14945054251208    3.78643032698232   11.07165479103288
C        19.64107534300995    2.99581110095184   10.03980358735600
H        19.10024540060483    2.93054038143707    9.10580134538574
C        20.82424669115372    2.29988252526808   10.21434865603207
H        21.20211602939543    1.68485177993673    9.41178128667200
C        21.51449504004807    2.39545186619554   11.41203060905823
H        22.43774560601767    1.85303845555223   11.54572033403895
C        21.02694667792743    3.18894119082264   12.44033749914594
H        21.56939236659521    3.26381933519088   13.37043683579636
C        19.84540122106696    3.88701279380856   12.27568490086334
H        19.46100729585609    4.51448604478561   13.06932099800747
C        13.27563889694002    5.31904887726211    2.47700477151701
H        12.54704241570326    5.91695622268290    1.95275883181932

