129
CSD_code = ETATEZ | q = 1 | S = 0 | Stoichiometry = C68H53Cl2NOP3Ru(1+) | MND = 6
N        16.71519771818661   10.55827684958253   12.59625800312950
Ru       14.63590749575511   10.24868593548415   12.64650323863177
P        14.78379430723176    9.15813520836206   14.67133867987995
P        13.89564616104944   14.63885516348677   12.95998468600084
P        10.30204904727880   10.68898774986697   11.45857419336111
C        14.48157497893518   12.05400443958877   13.21734498600255
C        13.46422424091840   12.91710392088923   12.74967028946936
C        12.26020645572638   12.49970844025311   12.21253857776910
H        11.54631468990484   13.24614346996482   11.88131347663571
C        12.70677903754141   10.06783455081277   12.46993719460949
H        12.19001498573241    9.09636063200317   12.41479157181696
C        12.70168100749223   15.61799647539834   12.02082828367162
C        16.61698295907014   12.31837680890664   14.26996821795390
C        11.69641474393742    9.32022887923051    9.46608231364364
H        12.58788123855867    9.46458396406573   10.06119321596231
C        17.24762312759826   12.99470956219502   15.29481272723240
H        16.67161924840797   13.71063714510468   15.86040727786847
C        16.50428703787824    8.83895538529348   15.16107049787019
C        18.73149660953823   11.23137515390292   13.74753551884029
C        12.58427550430325   14.90773186417458   15.33404563423742
H        11.76519816768325   14.47148878831689   14.77463984149248
C        13.93254314994816    7.55140960374986   14.81682930241628
C        11.79188755276808    6.45084172957540   14.86263984603022
H        10.71309524672698    6.50480788524358   14.82288822319177
C        15.48790753077429   15.04198465808870   12.21048744759001
C         9.59565981764798   12.95493339934289   10.08498949382969
H        10.40985817945571   12.66924245943833    9.43175954703552
C         9.32831896821990    9.66460192687441    9.09898968415737
H         8.38348067940188   10.07867515479171    9.42924032870202
C        15.96044247816802   16.34544431682863   12.35403897560260
H        15.37740959248650   17.07279475037272   12.90454793710462
C        13.25733325341377   11.05450098921306   16.06817622728985
H        13.12320954043570   11.52387779360926   15.09963538584796
C        11.91091833450838   16.61890195640448   12.56945351856429
H        11.97488032464061   16.84844905569905   13.62381877671219
C        14.18417077055192    9.27936007175519   17.39436438816777
H        14.77150928758145    8.37371738244573   17.46271587607417
C        17.26111024304776    7.98372585873538   14.35932707617677
H        16.80029620213764    7.51379777130876   13.49926845869098
C        17.44579844104906    9.83790592986995   11.77181967828078
H        16.91102961025812    9.26839311699588   11.01891912312737
C        12.64386991554158   11.57443846995067   17.19537815279377
H        12.03677074424747   12.46441743952137   17.11525198553550
C        12.63768579685790   15.33559161182179   10.65619449457276
H        13.26903056058417   14.55894102309875   10.24311318155162
C        11.77011722424601   16.04654979526570    9.85035429840738
H        11.72456289398053   15.83469070680813    8.79297775695406
C        14.87452077753353   15.66694357413224   15.40005256762243
H        15.82191425064737   15.82488384135883   14.90523011883704
C        14.56420530867475    6.32508601415560   14.97020019286982
H        15.64064770742732    6.26349454286408   15.02252827334682
C        13.50055502129265   15.78499844299827   17.36755652392536
H        13.38340885615874   16.04491119993246   18.40827544790145
C        11.04192518046144   17.32324060711232   11.75313036290326
H        10.42515886688506   18.10206422351810   12.17512196769363
C        18.59344615731945    7.75774262171402   14.65191852867883
H        19.17035909717636    7.08465862696995   14.03511621064463
C         8.86957698519254   14.10747753109479    9.85329786598983
H         9.11020280084922   14.73469580044340    9.00911393804138
C        16.18698353088607   14.11648762046952   11.44386106192247
H        15.78764669529246   13.12401169918861   11.27060565910116
C        19.33882279255272   11.94720802810997   14.79473136081189
H        20.39804469821968   11.82366362362766   14.95815803636501
C         9.41910483378955    8.98811222221435    7.89807959063422
H         8.53936993866625    8.86113144748152    7.28533211946329
C         8.22685691659588   12.48761156816300   12.02193323404086
H         7.97763636529514   11.84856516050931   12.85779578669875
C        18.59700624006835   12.78864161563783   15.57804378084051
H        19.05334455843979   13.32564166857203   16.39471055496061
C        18.83983890853034    9.75107877094022   11.86268382054781
H        19.37736275995243    9.13986347990232   11.15613030476275
C        14.71684831037828   15.99094516574483   16.73673469607199
H        15.54627060507156   16.40828110047496   17.28761798276056
C        17.16411981034620   16.70156887430383   11.77611100401625
H        17.53771830006402   17.70809628211732   11.88834303989336
C        19.47581266800643   10.39669130900225   12.88637649900190
H        20.53875071484681   10.29567560542104   13.04497502550377
C        12.43400547502939   15.24300019889204   16.66643225804244
H        11.48669176967999   15.08660251762950   17.16084968908941
C        11.77287182654117    8.64530908721768    8.25996766369890
H        12.72400976585208    8.25569922459705    7.93261973809531
C        17.88578585097208   15.76792598600139   11.04707383471917
H        18.82764513983043   16.04855366649975   10.60096659933586
C        17.11413271262767    9.50252466141716   16.22192558674844
H        16.54865637762658   10.19976334644040   16.82440792092904
C        12.42655486065865    5.22568689084769   14.99335576583724
H        11.84432078667959    4.31837348087077   15.05029100156360
C        17.39158249728452   14.48577974973055   10.87129333156413
H        17.93810141885124   13.76807884142432   10.27872684153737
C         7.50677770676747   13.64480473837049   11.78065931900123
H         6.69064029060402   13.91409222762892   12.43369073142739
C         8.80036478804061    8.47192023348848   12.28134190828337
H         8.71412490077831    8.21765971244985   11.23453954054411
C         8.22009245048113    7.66838603343821   13.24763398690447
H         7.67241262566494    6.78677328167651   12.95172537985653
C        10.96996431746785   17.03773566182481   10.39975221596319
H        10.29496386667594   17.59647406218620    9.76957143776743
C         9.06206593354574    9.11367268990922   14.97605806788575
H         9.17241234614976    9.35382735233508   16.02285450993152
C        12.80761585629361   10.95379069890204   18.42158927265205
H        12.33142891964088   11.35977811932576   19.30146126366084
C         7.82754980370630   14.45243652294814   10.70112044494986
H         7.25926385036702   15.35089699840225   10.51583373362356
C        13.80779604538275    5.16847927186198   15.05578146798985
H        14.30411265767968    4.21609112713372   15.16770295371932
C         8.34857614752729    7.98837999579270   14.58986854956053
H         7.89700586385226    7.35624221624568   15.33936638793560
C        19.18651104254614    8.39393211010059   15.73053486860439
H        20.22539005702955    8.21210840599173   15.96120284672171
C        10.63986002406977    8.47602875987270    7.48127912734028
H        10.70539564517774    7.94862338704397    6.54185541746364
C        13.57448884531637    9.80221515511470   18.51825688360707
H        13.69137904952754    9.30957682747343   19.47183826214777
C        18.44826839294600    9.27237388120497   16.50605171433187
H        18.91210713781449    9.78277157115413   17.33698722861110
C         9.50775337968758    9.60393558270304   12.66819756880423
C        17.33012206066769   11.34071073332460   13.52016392791138
C        10.47029972935801    9.82372844640742    9.88589903653690
C         9.26952883442906   12.14226021603634   11.16998957486553
C        11.90602940129679   11.14451111555592   12.12048930002939
C         9.64320749543678    9.92286918182814   14.01861628929624
H        10.21519619376807   10.79584904133965   14.30722111047934
C        13.80263482483803   15.13311975380484   14.69638778850151
C        14.04357527179459    9.91483993105358   16.16216886079972
C        12.54054219248963    7.60775436688513   14.78128152567774
H        12.05184799385057    8.57146497649058   14.69382493364195
Cl       14.67862416092803   11.08398833638760   10.40538628217812
Cl       14.87262323069453    7.99933980534483   11.85766838927582
O        15.35786342605450   12.76291230748987   13.96925451394715

