90
CSD_code = ETAXIG | q = 0 | S = 0 | Stoichiometry = C45H39IO2P2Ru | MND = 8
I        -0.46023830429335    5.74057174636917   20.24060221383457
Ru       -0.54697931233585    5.49382016525359   17.56211594894026
P         1.76485100106082    5.22458386135338   17.57269705113518
P        -1.20362062146871    3.27052092450138   17.65377692885617
O         0.81105987361482    9.15816000032104   18.12308638416807
O         1.77088489046751    7.81915311202331   16.55896515444907
C        -0.50543513788144    7.60604933144812   16.86834245181167
C        -1.75140505835183    7.53162730068633   17.56424951070937
C        -2.53372593638470    6.56449597862171   16.90587732570580
C        -1.85224674091913    6.12247273615421   15.71697527487941
C        -0.57034933929331    6.73067936209222   15.73436013480261
C        -2.19098114589682    8.41846844871741   18.67724874137457
C        -2.46967449129113    5.44479730400280   14.58024374686837
C        -1.75947761505556    5.24840038304833   13.38917823239411
C        -2.35414740454528    4.64099643176930   12.30141299047140
C        -3.67247713958466    4.21995094344417   12.36793909792054
C        -4.39322427215063    4.42470670716033   13.53181857791316
C        -3.80377307675140    5.03174915448294   14.62372601198717
C         0.69530130152224    8.31104697624170   17.27101184650566
C         2.96816269264649    7.74977162762896   17.30961705162636
C         2.81524456247188    6.59545584111577   18.29742102258433
C         2.51051070321330    3.83781425018219   18.50370467215534
C         2.87442996553321    3.96337050184280   19.84330312939729
C         3.40975545370604    2.88244079773214   20.52147938802184
C         3.57970550223170    1.66806849250867   19.87803725050180
C         3.20928398280489    1.53501273032054   18.55021068607680
C         2.67689048240501    2.61175339410495   17.86610275101419
C         2.58140377947353    4.91153946983613   15.97054892874925
C         3.96091256107857    4.99917528366599   15.81149316528434
C         4.53378850682966    4.71395560095894   14.58605586887566
C         3.74372970297078    4.32109651992146   13.51690863190879
C         2.37468338330686    4.19944649219032   13.67963360203261
C         1.79971945381596    4.49507154338116   14.90205504032397
C        -0.58728930909820    2.11256024078997   16.37760515681298
C         0.16662341810732    0.98619912769418   16.69111976361999
C         0.65827049320921    0.17697574319472   15.68169561668634
C         0.40509786714914    0.47660668978615   14.35364567797300
C        -0.34622766642426    1.59539609726965   14.03390635948433
C        -0.83139177596027    2.40970670293064   15.03926076170610
C        -3.01760415067102    3.22684387662048   17.42103980307720
C        -3.74433794259453    3.93908445152559   18.37495707491135
C        -5.12522188573336    3.94349579130613   18.34452832593562
C        -5.79652450805232    3.22853496416863   17.36394107583608
C        -5.08039368361360    2.50479538076652   16.42635581512684
C        -3.69521056964702    2.50066769072831   16.44963625286085
C        -1.13225324505737    2.14101038831020   19.10077465898831
C        -0.09354118385086    2.22627143508438   20.01745890854325
C        -0.00862091219262    1.33369742941681   21.07077563463596
C        -0.96016173569655    0.34012928935695   21.21522797978182
C        -1.99189254973922    0.23835171297515   20.29558263605510
C        -2.07938789454517    1.12806402712556   19.24195976335075
H        -3.57016312633207    6.36931997109045   17.14406994153585
H         0.15112952557410    6.75546649780111   14.93010418889782
H        -2.88262565312398    7.90983332569347   19.34696795114989
H        -2.70009218333435    9.28362438206648   18.24586281762069
H        -1.33870166307006    8.78210796427223   19.24790671452860
H        -0.73017551724454    5.56659930206677   13.31388598444657
H        -1.78571750197993    4.49884357252778   11.39350172181336
H        -4.13531108791296    3.74434484614060   11.51629412868676
H        -5.42542559802899    4.11259969316462   13.59227941718126
H        -4.38927289939559    5.18518762529425   15.51668864915049
H         3.14779487608863    8.69939737577170   17.82647694648264
H         3.76097841711019    7.56767161849560   16.58182605511917
H         3.78579891632933    6.19380701274513   18.59700564999187
H         2.29352646721793    6.94670680774969   19.19507803580927
H         2.71775466703783    4.89305387244481   20.36991485144089
H         3.68786650462728    2.99150497868379   21.55913919559236
H         3.99692503185805    0.82619323169548   20.41042044166697
H         3.33683971610578    0.58989742294524   18.04268541766456
H         2.38937090136276    2.50570700555950   16.82907726994058
H         4.59062040835454    5.27288296859862   16.64601274860924
H         5.60457786862012    4.79175031771073   14.46460109391461
H         4.19854397812257    4.10024408203121   12.56252542344571
H         1.75474855331177    3.87109084834337   12.85775734028647
H         0.73262033976103    4.38434197634296   15.04741607085828
H         0.37120013804540    0.74272072261293   17.72335860990020
H         1.24272406958600   -0.69551995385559   15.93551667024383
H         0.79076157973540   -0.15979388855650   13.57091317393044
H        -0.55737802223773    1.83626979726339   13.00181680032554
H        -1.41549870038801    3.28306291517330   14.78777808505063
H        -3.21510263826308    4.47898933517087   19.15180393806457
H        -5.67939877923561    4.49881641035457   19.08730971612577
H        -6.87636410828708    3.22990297755834   17.33731646430940
H        -5.60016384267236    1.93483575444154   15.66987365352522
H        -3.15080957366915    1.92034762102551   15.71888357635442
H         0.64763466415591    2.99952816475847   19.90934014751322
H         0.80208075635758    1.42326734218922   21.77772004197349
H        -0.90103934261729   -0.35468350169143   22.03984944368641
H        -2.73503984498580   -0.53906395778232   20.39908425466235
H        -2.88571226511630    1.03152910996329   18.52906728983796

