86
CSD_code = ETAXUS | q = 0 | S = 0 | Stoichiometry = C40H37IO5P2Ru | MND = 8
I        -0.16183498038796    0.01560931627579   -2.28371440790141
Ru       -0.16792525877163   -2.51868216579132   -3.17570628958579
P         0.06909026384715   -1.77835555570006   -5.35821775660028
P        -2.40014844649976   -2.53845109927349   -3.47020161869557
O         0.31158030262774   -5.71341448563004   -5.26381730866043
O         1.74961329778487   -3.97962502451876   -5.51190044257087
O        -3.33212781523074   -1.27368783432707   -3.86162774756532
O        -3.33030646696031   -3.32866126096472   -2.39382922879392
O        -2.67764410321474   -3.48228917623609   -4.72817748054509
C         0.93940767590816   -4.38633190515270   -3.38199623536903
C        -0.10255066040671   -4.65152130353279   -2.44030327875505
C         0.13238243296948   -3.81173639954292   -1.31672832025227
C         1.34878595324811   -3.09803701828924   -1.52047100324530
C         1.82802807512045   -3.40657809571944   -2.81312233282848
C        -1.08283185714076   -5.77161519167385   -2.53125462964301
C         2.05231324861830   -2.27876931071476   -0.48828551515640
C         0.95030890427173   -4.81121545469014   -4.77002088421967
C         1.29510894834406   -3.78778297531374   -6.83991862096096
C        -0.01350859629536   -3.00770843423624   -6.76348785642274
C         1.59297693266620   -0.87480020041878   -5.80333726863914
C         2.57097160907577   -0.62166009078067   -4.85277284794675
C         3.72460542475231    0.06073291043177   -5.19741974142718
C         3.90791375801703    0.49582373236207   -6.49771862977735
C         2.92756266704864    0.26066099708108   -7.44970830074950
C         1.77379951693883   -0.41678569590843   -7.10677616818289
C        -1.17114541971053   -0.57891037174306   -5.95856643707608
C        -0.97952407315080    0.77673553606115   -5.70203348863673
C        -1.93547984338005    1.70249424475749   -6.07797968129806
C        -3.09003985786686    1.28855056379410   -6.72072036869828
C        -3.27763904494159   -0.05506323308945   -6.99741555689464
C        -2.32752737893942   -0.98617992010671   -6.61811494167125
C        -4.07154560804252   -0.43512764199329   -3.04596396335011
C        -3.71249527793098    0.90121567767287   -2.95046602070734
C        -4.47302100994999    1.75396441540722   -2.17130581104620
C        -5.58690298198073    1.28185868850467   -1.49754937075113
C        -5.95271290774815   -0.04771253484045   -1.61742046392648
C        -5.20258885890609   -0.91053752569565   -2.39675412970715
C        -3.26192598583507   -3.22712910941907   -1.02483585843675
C        -2.78891045067296   -2.09106268364063   -0.38878835915910
C        -2.73467663529963   -2.05177923073855    0.99332053942361
C        -3.16123717366655   -3.13669905246213    1.73985790064803
C        -3.65790663117741   -4.26060509707641    1.09997764219388
C        -3.71010134101463   -4.31240741819622   -0.28108237573397
C        -3.92940036711077   -4.01969389202594   -5.02282500095859
C        -4.97186860996281   -3.22136856568883   -5.46874727109956
C        -6.18774959600161   -3.80336235775806   -5.78572443669108
C        -6.36423086174374   -5.17106219320014   -5.66802685948784
C        -5.31494411624179   -5.96390630362987   -5.23481550930908
C        -4.09814425402388   -5.39188367795102   -4.90943496424938
H        -0.40594748692554   -3.86018591853250   -0.37777428285987
H         2.80761691106626   -3.16689417712561   -3.20404510490201
H        -2.03568317345486   -5.51922481614757   -2.07142295111401
H        -1.23135491049316   -6.05307952868484   -3.57213962359760
H        -0.67211457704522   -6.63759723341460   -2.00569170478745
H         2.68221579682918   -2.93503529533821    0.11614937743207
H         2.68648271332070   -1.52190588113843   -0.94656407569613
H         1.34268667370279   -1.78158781450306    0.17085576185011
H         2.08051390813217   -3.21365133156221   -7.33552015034465
H         1.16291979984421   -4.75344442576281   -7.34110583903123
H        -0.83921532897674   -3.69129500369050   -6.54381091906102
H        -0.22248509001547   -2.48947000328506   -7.70110163509889
H         2.42057255000058   -0.94395046204833   -3.83225215235940
H         4.47707661205947    0.25740035986552   -4.44810351298391
H         4.80801887877592    1.02657241137244   -6.77050077605330
H         3.06222622364654    0.61198552492206   -8.46259594035781
H         1.00302441464653   -0.57645759345219   -7.84855422843840
H        -0.08000082425529    1.10757380664749   -5.20292271403162
H        -1.77767055968649    2.74893907326190   -5.86290981454386
H        -3.84071048264842    2.01019555015403   -7.00747092409709
H        -4.17118244407219   -0.38174375883314   -7.51100244062821
H        -2.49132522023723   -2.03100502559996   -6.83577455040932
H        -2.84029859233514    1.25498952925329   -3.47496936792720
H        -4.18446145671769    2.78998722002592   -2.08800793689912
H        -6.17303125771749    1.94936923648080   -0.88432761885508
H        -6.82726051149583   -0.42053252911683   -1.10542723132772
H        -5.49115893007995   -1.94505131414422   -2.50929265094037
H        -2.47698583255557   -1.23852877242600   -0.97302951318357
H        -2.35558154990705   -1.16541776452541    1.47805391662099
H        -3.11393267994435   -3.10542764604977    2.81769431480956
H        -4.00348841240836   -5.10581022171172    1.67619995278379
H        -4.10102214148696   -5.17984745649808   -0.79219403322979
H        -4.82872065482709   -2.15715949223407   -5.56497827760913
H        -7.00004239788719   -3.17907877619629   -6.12725405307898
H        -7.31502110821201   -5.61842547344211   -5.91571324949552
H        -5.44190005266739   -7.03245743290131   -5.14573092896707
H        -3.27251134700436   -5.99909415831274   -4.57373642045752

