92
CSD_code = ETAXOM | q = 0 | S = 0 | Stoichiometry = C43H43IO2P2Ru | MND = 8
I         0.35944412583686    0.42429253501249    7.27530364882384
Ru        2.97345154811870   -0.24895570524772    7.44562914031491
P         3.56779632783789    1.98767828030615    7.13420008829641
P         2.91572850652206   -0.90538102785791    5.22456492089967
O         6.79079788736426   -0.00407106026877    8.06029904287864
O         5.43851266318015    1.48530209479494    9.10132426443234
C         4.63231435168799   -0.66808535935299    8.82595657429872
C         4.41491503439855   -1.91323198729490    8.16018371027329
C         3.11420643153499   -2.34573057583548    8.53646677269034
C         2.57244161633289   -1.45631792969818    9.50606893188618
C         3.47577855529800   -0.37563229567000    9.63146557058922
C         5.46619353024792   -2.76952120702603    7.52970493828236
C         1.44251467278470   -1.79979506278469   10.44981471618459
C         2.10164833075723   -2.63398632620843   11.56595915455066
C         0.35699666253494   -2.64136358694093    9.77297574483238
C         0.79938088573372   -0.55949395479386   11.07545750375146
C         5.74519991919736    0.23751539098925    8.62538554320760
C         6.02145955207498    2.53352355871405    8.34708306143130
C         5.36350579503808    2.51423739790296    6.97124607332356
C         3.01716693778884    3.19943515485030    8.39227111768721
C         2.22370491528625    2.81264655207964    9.46223459975200
C         1.81679537711626    3.73707006271546   10.40871853138932
C         2.20029033847972    5.06065662535913   10.29305526654191
C         2.97801731331546    5.46003884755834    9.21689096121698
C         3.38148411116934    4.53986533641548    8.26932331171054
C         2.95696848374005    2.84878183074878    5.64177769383594
C         3.65805545720488    2.75807957360682    4.44139717965272
C         3.17661794722535    3.38090381027204    3.30475202545731
C         1.99382417323336    4.10046724982900    3.35286498813891
C         1.28741731258944    4.18792552604372    4.54108084951997
C         1.76053472031174    3.56151804729369    5.68034726685335
C         1.59131234561762   -0.62057167671403    3.98299792980069
C         1.02691707838190    0.64396293355545    3.87038236083776
C         0.07148228790891    0.90867645698736    2.90721474509546
C        -0.33085212182643   -0.08991411928487    2.03792162601830
C         0.23248496438092   -1.35127513751165    2.13593937903339
C         1.18891357851072   -1.61937377397118    3.09815810566981
C         2.87598327725700   -2.73028441119422    5.20392996358812
C         3.85564432519107   -3.52883010210945    4.62614018490441
C         3.72775579604645   -4.90855008205645    4.66040557059138
C         2.62792326315564   -5.49364354549910    5.26391624133347
C         1.64145403758114   -4.69911104696280    5.82980691680463
C         1.76480237853769   -3.32381117723655    5.80171479388352
C         4.38755090059146   -0.53552689629456    4.20563857023819
C         5.60541697265383   -0.42488900968960    4.86937787951344
C         6.76590656330641   -0.13957869050156    4.17465721810346
C         6.71663494225921    0.05144050329991    2.80324913577921
C         5.50656836999405   -0.05079652522961    2.13612860417482
C         4.34475614039030   -0.34455332827316    2.82833168473926
H         2.71629727811192   -3.32088500351147    8.29291257700695
H         3.47047600993007    0.38046233359402   10.40309544100726
H         5.69849529982891   -3.58426824528714    8.21996312878630
H         5.13434818280365   -3.21584256261601    6.59338563897208
H         6.37748478213929   -2.20045216848348    7.36124435492369
H         1.35069818864426   -2.93226647246091   12.29405567389377
H         2.56291966375985   -3.53158611792561   11.15765341475256
H         2.86941388822501   -2.05609746046871   12.07765475706490
H        -0.42561264968475   -2.87265752432094   10.49179815330940
H        -0.09510237724303   -2.09704523036289    8.94824746170461
H         0.75855810363537   -3.58058123394422    9.39896916927130
H         1.53485100721779    0.04627124400670   11.60079057708373
H         0.30983494128028    0.04641335217963   10.31754698659769
H         0.04371095282738   -0.86693646434904   11.79488075344359
H         5.79282892648861    3.44923147742701    8.89513881834902
H         7.10686887457463    2.39782634137236    8.28102627894649
H         5.86527399558255    1.78449056070506    6.32994232703486
H         5.42036507415603    3.49012699760781    6.48646974081749
H         1.90174657311193    1.78651566101772    9.54805617729324
H         1.19402825328421    3.42066652711260   11.23238435486317
H         1.88735880010581    5.78430821904055   11.03107889535952
H         3.26717358232505    6.49604614228404    9.11318290237218
H         3.96544979712954    4.87015583813569    7.42130426231269
H         4.57879968694230    2.19488866509053    4.39258130378474
H         3.72838706991828    3.30230692902532    2.37929218559599
H         1.62219110862764    4.58821750963734    2.46387068602109
H         0.35980564181760    4.73885193448923    4.58340886336801
H         1.19335613577867    3.61333655698238    6.59871208868115
H         1.32712153061894    1.41976854028979    4.55351053620769
H        -0.36031003839743    1.89600530517893    2.84549120680063
H        -1.08158821723908    0.11016995733653    1.28788430497852
H        -0.07396944283564   -2.13607505040593    1.45934510176199
H         1.61897291492860   -2.60895487339865    3.15212308722748
H         4.70921899957162   -3.07403853717646    4.14107842851133
H         4.49228146411475   -5.52652957816831    4.21188388756699
H         2.53511341177679   -6.56941941527095    5.28817347491664
H         0.77677082984254   -5.15390018640839    6.29107059166134
H         0.99442397792333   -2.69403920495939    6.23235344856630
H         5.63843976351413   -0.56052815479176    5.94201050562357
H         7.70276285308405   -0.06043069659073    4.70675069663654
H         7.61860426578718    0.28302354476629    2.25608271042806
H         5.46561770053547    0.10059993587358    1.06709928893124
H         3.40641461160233   -0.41739155910225    2.29858165476109

