68
CSD_code = ETECUB | q = 0 | S = 0 | Stoichiometry = C32H28Cl4NP2Re | MND = 6
Re        2.03004981706620   15.94111046567973   15.31612159786587
P         0.35340658255999   14.92320114063955   16.78088474992879
P         0.10433459930197   17.09746448666881   14.34172121342719
Cl        3.59843441020043   16.76111971103953   13.74889005036408
Cl        3.71562673684940   14.58914979838436   16.21962050850132
Cl        1.37250754718292   14.34897212196116   13.90483605513846
Cl        2.51771263230969   22.39943440232167   19.21718928784757
C        -1.24290075824768   15.78866764338149   16.41131539800718
H        -2.08977488507128   15.18191159519376   16.74588892016454
H        -1.21952414082931   16.70864996156123   17.00576595549802
C        -1.36154994988921   16.13179130846311   14.92585058908756
H        -2.28226552562213   16.68605132842743   14.72078128704589
H        -1.36680117013909   15.22050854038590   14.31770875613545
C         0.51389031695561   15.08089210965593   18.58139809268459
C         1.72224480784023   15.51203591101350   19.11676947906435
H         2.54096065888839   15.74915101190740   18.45028946694962
C         1.86545668338522   15.62284724485646   20.48887059393201
H         2.80329893039190   15.95866013166970   20.90435192201749
C         0.80921570310589   15.30027736398074   21.32460389050191
H         0.92092225342883   15.38695634404096   22.39515860459101
C        -0.39144637326708   14.85594333001322   20.79163747905222
H        -1.20978184192866   14.59424779228099   21.44634119474239
C        -0.54207891634968   14.74130668635962   19.42251947594220
H        -1.47255475131672   14.38130240921625   19.00542761096337
C         0.07176339878485   13.15082078662143   16.57265575752673
C         1.11286791618745   12.33044744417864   17.00574968722525
H         1.99547104169608   12.78303133482296   17.43970507771490
C         1.02389445774660   10.96203267253896   16.84241189507534
H         1.83410911505120   10.32775619765403   17.16929107284526
C        -0.09892190133936   10.40720306683492   16.24749555280541
H        -0.16721419189478    9.33763079482137   16.11469039036579
C        -1.12848851414079   11.22284895776258   15.80895716615731
H        -1.99675012897776   10.78954185730602   15.33384040181244
C        -1.04681449610355   12.59577409587327   15.96327909030877
H        -1.84903247940604   13.22173343794759   15.59934122566461
C        -0.10865417023743   18.80468884831314   14.91602263247472
C         0.97038671068418   19.63461394663788   14.61231777115591
H         1.80250560298485   19.21948485310051   14.05631286186932
C         0.97674778339339   20.94834594323376   15.03551996519847
H         1.81356127755493   21.58818792725956   14.80079695545940
C        -0.08897381339539   21.43992577119449   15.77402434398655
H        -0.08186299405866   22.46343540785072   16.11726216461582
C        -1.16220771364149   20.61942159629137   16.07476077724370
H        -1.99273836193558   21.00550845705942   16.64766703042818
C        -1.17799827807770   19.30195165152123   15.64819467351247
H        -2.02496401302239   18.67551661538216   15.88881062562484
C        -0.16570121376737   17.23896255907743   12.55683067655422
C        -1.38348195799009   17.72161108620156   12.08206775911914
H        -2.15696733645143   18.02066751709820   12.77628828346076
C        -1.59208358418089   17.83114792221808   10.72102410567903
H        -2.53670587149683   18.20148543150065   10.34992944373218
C        -0.58983362363490   17.47044337235986    9.83260486763763
H        -0.75985080698185   17.55586719935830    8.76941826339241
C         0.62803151078822   17.01319016804509   10.30590914114230
H         1.41282236008295   16.74594119075756    9.61447821833872
C         0.84646122559199   16.89856703662978   11.66823431289680
H         1.80162047054152   16.56040637068467   12.04617416639570
N         2.29176403865897   17.29509005018395   16.41743769857437
C         2.36449668544345   18.42509871941385   17.10721911818592
C         1.37690280167278   18.77877010121338   18.04862967506263
H         0.57667773180536   18.08113373985777   18.24446765726959
C         1.43120741847275   19.99114009868314   18.69509757827400
H         0.66822161206934   20.26555265647142   19.40686612489331
C         2.47401515555901   20.86888112552930   18.42620831211345
C         3.47784167915235   20.52989435326394   17.52684835165893
H         4.28774232568541   21.21798881004734   17.34080126715962
C         3.42967246421525   19.32051744118618   16.87467369708216
H         4.18667730009282   19.03268854692077   16.16224198284938

