36
CSD_code = ETEDIS | q = 0 | S = 0 | Stoichiometry = C15H14N3O3Re | MND = 5
C        -2.29202213425041    5.36860195374053   -1.56463044056114
H        -3.36336945848053    5.42491573223966   -1.68203756089467
C         0.46050191004589    7.34263731348286    0.15532026498948
H         0.85785878375754    8.09206095013772   -0.54548954389292
H        -0.25455006648867    7.84195265078817    0.81652174306182
C         1.35215287668425    6.67823630060072    2.33397236082848
H         0.41570412307224    6.12324511271100    2.49153367577117
H         1.24407297901739    7.66608602227100    2.79825978835816
C         2.53292650059517    5.91857925163132    2.96778883680083
H         3.25004985975595    6.62311880694680    3.40433087407452
H         2.20900779774021    5.21900691544561    3.74394083373266
C         3.81486148881376    4.02969269956483    2.11536971718329
C         4.42717630308783    3.48454793354893    0.84593657484791
C         5.20093382329016    2.33293177107571    0.86591720135341
H         5.34132660155706    1.82451502924724    1.80713514524237
C         5.75725987609497    1.88114754696500   -0.31950325073971
H         6.35795182112870    0.98429645961888   -0.33750199479521
C         5.52805692334108    2.60274836462899   -1.48205614116778
H         5.94451671657652    2.28779878501324   -2.42551037045781
C         4.74421577047722    3.74409575233621   -1.41653655606233
H         4.52905294706944    4.33842746259542   -2.29360659756471
N         1.57635077512782    6.80924160371489    0.90379168301005
N         3.19560548165479    5.20006727474000    1.89644115462255
N         4.20619889841271    4.16679678324471   -0.28413446883514
O         4.16610309620036    7.20495348894936   -0.26357901488593
O         1.79401897398868    5.06891827839914   -1.10864845380562
O         3.88259224886251    3.42684048427864    3.17553005411825
C         0.48393940246437    5.23471971528692   -1.24711082665570
C        -0.25110505216001    6.26764685776917   -0.63682120683179
C        -1.62686522438556    6.30960099088572   -0.79876439859426
H        -2.18472811617579    7.10325964689820   -0.32161070362845
C        -1.57156854791175    4.35853731176619   -2.18015511606755
H        -2.07783841590471    3.61809063608016   -2.78179193458424
C        -0.20340504194389    4.29188579351267   -2.02492865148722
H         0.37091317532222    3.50308762412692   -2.48827576627068
Re        3.08010290356247    5.97771069576059    0.08830308978699

