35
CSD_code = ETEDOY | q = 0 | S = 0 | Stoichiometry = C15H12N3O4Re | MND = 5
C        -0.18711329419571   -1.63500978164714    2.69825931046740
C         0.41646236748784   -1.55140361342366    3.96878877270086
C         0.99381447182141   -2.69433250025663    4.51981196891949
H         1.44052495788784   -2.60001456201947    5.49830671676414
C         0.99546085364835   -3.89913215555982    3.84882969255497
H         1.45949762278213   -4.76731262123895    4.29064839763440
C         0.38934954594299   -3.98656754703265    2.60311355171694
H         0.37541155269664   -4.92563550727044    2.06982811564783
C        -0.19394464842999   -2.87385759729521    2.03832670089168
H        -0.67194894967796   -2.92589389332581    1.07141845161735
C         0.40970676205252   -0.33408582588481    4.82294601721041
C        -0.07092516333267    1.99598567929084    5.12439570030007
H         0.77700835374361    2.67040970664950    4.96353001721731
H        -0.05913966745286    1.64132238979484    6.15867274609972
C        -1.38621003542847    2.69647168093385    4.76623526002339
H        -2.23014627355222    2.28328260947805    5.33158132316184
H        -1.33985654404341    3.77207306366750    4.96027381143482
C        -2.72343439416037    2.91839988345497    2.77329768759242
C        -2.82269807165257    2.45531909747418    1.34246475469023
C        -3.83953426330774    2.87015250214782    0.49731344589077
H        -4.58658105351853    3.54629724855263    0.88279113068375
C        -3.85533325588773    2.39650185351397   -0.80506285375173
H        -4.63557706902207    2.69494400306586   -1.48833057160970
C        -2.85007364470736    1.53096281306539   -1.21330388602485
H        -2.82504299038109    1.14152610862307   -2.21831231523130
C        -1.86829132336356    1.16399580508964   -0.30723917216624
H        -1.06855909188683    0.48704633131858   -0.57458180732734
N         0.07455540662116    0.84890438251937    4.22892449465721
N        -1.60206063533882    2.44326492240176    3.34983912615796
N        -1.86104074254201    1.61484608052523    0.94064076143926
O         1.07222283213739    1.86377517239606    1.68844028462958
O        -0.77333125294003   -0.61941892891222    2.07891897797125
O        -3.58390403975861    3.59726847567774    3.30515634185414
O         0.65587690518002   -0.41559680057389    6.01823129358319
Re       -0.33484522742259    1.28641152480104    2.36334575259891

