63
CSD_code = ETEFOA | q = 0 | S = 0 | Stoichiometry = C30H27N3NiO2 | MND = 4
Ni        1.69555841730862    8.37460937109638   28.06907963572345
O         0.13465150430851   11.93376416428786   26.69600448017033
O         3.32006689050886    5.58150425505384   30.64140052095217
N         0.84889713344414    9.83059998852229   27.06237744474956
N         2.26960010315255    9.56712816729472   29.53780357947339
N         2.30615187501526    6.76418346599262   29.01877327697556
C         0.20351640335814    9.79086620275186   25.74924047637908
H        -0.58947285089945    9.03815600087846   25.74196665455753
C        -0.38353834813689   11.21544232098236   25.59545593049736
H        -0.06262524136149   11.70129893894353   24.66948531799470
H        -1.47754024811863   11.22723704797536   25.64756950260277
C         0.79867280781043   11.06141383742495   27.49194325521438
C         1.35122948548985   11.61477886752257   28.66325283886039
H         1.20300421704486   12.67297540091305   28.80276456493658
C         2.04717157243121   10.89587800956834   29.58930578906362
C         2.65277186498377   11.53006435980954   30.81980198316171
H         1.86900973045758   11.96446696821693   31.44225257966337
H         3.33791716087918   12.33103496506360   30.54082329353917
C         3.35282070842152   10.35629375990694   31.49902460187598
H         4.43675937234884   10.47811360239800   31.52852877929652
H         3.00922708203385   10.18877566720916   32.52002574945599
C         2.98722786897895    9.18659757315422   30.61496982694398
C         3.34474137832371    7.90528464508519   30.91417309558707
H         3.91601703288196    7.69815697732104   31.80390595255229
C         2.96735591184932    6.78966373473029   30.14152451334298
C         2.84807924524966    4.58521179303921   29.75711895460593
H         2.20601609594830    3.89330996978370   30.31113371842800
H         3.70390138837579    4.03563719538861   29.35269526153217
C         2.07089216647049    5.36539914314596   28.66718529036364
H         2.47710700686513    5.15344805032288   27.67278890854456
C         0.60474786952475    4.99906697743511   28.68491879190395
C         0.17380912325243    3.88688256904780   27.97329296197027
H         0.88396026996437    3.32381652899531   27.38494392885974
C        -1.15596873436897    3.51007126468663   28.00301699893839
H        -1.48305204988890    2.64711374684596   27.44166986462594
C        -2.06835825083910    4.24069163186021   28.74620146901950
H        -3.10820801444426    3.94883190292640   28.76620210642387
C        -1.64354998883233    5.34803870093957   29.45931813094223
H        -2.35193405084093    5.92309898059988   30.03788330326959
C        -0.31168851569229    5.72399971840268   29.43346183516537
H         0.01383262103923    6.59877535221046   29.98019886711544
C         1.17426954845092    9.49686120578343   24.62853085884902
C         2.48405605171886    9.95386067562860   24.68290159068768
H         2.83097917440070   10.48252282032489   25.55944717483074
C         3.35009708830724    9.71531889226150   23.63137654492306
H         4.37033693256621   10.06654452098622   23.68572037431539
C         2.91250890644463    9.02837159636521   22.51227714106070
H         3.59026565178950    8.84030354142387   21.69245091548305
C         1.60335553670481    8.58380369814038   22.44696645653505
H         1.25630597060383    8.04849573540771   21.57549655281397
C         0.73734166981612    8.81927162772190   23.49896721062029
H        -0.28222210593500    8.46610454892668   23.44917358469423
C         1.39305828197622    7.26795157507000   26.60456885656120
C         2.51531700840615    6.99447030508408   25.82015589118449
H         3.47692229274391    7.43086875634060   26.07389158126370
C         2.42643957028754    6.16492867983193   24.71457663838441
H         3.30671377716806    5.96924549850809   24.11820924802768
C         1.21488693643179    5.58898099250647   24.37424768775221
H         1.14483628506021    4.94045748160865   23.51281360119367
C         0.09581261657977    5.84860028107313   25.14349594897278
H        -0.85408355824904    5.39926348579763   24.88818659683960
C         0.18102950382553    6.68033080475554   26.25003903126639
H        -0.71140515344553    6.85996145871832   26.83732247854403

