75
CSD_code = ETEHEQ | q = 0 | S = 0 | Stoichiometry = C28H32N6O8Pd | MND = 4
Pd       11.31108501564644    5.50081324614873   13.83469731426180
N         9.39746122321939    6.05309899260643   14.03336807578450
N        10.75630922149286    3.58900190979711   14.51641305727981
N         6.21731281330323    2.68491783982074   13.43841800562450
N        11.65687885598184    6.92398202406302   12.34003106863082
N        13.29543295315921    5.20170274391263   13.97360777979207
N        15.88842273880962    6.50076495701992   10.27806645617452
O        10.39416404936108    6.27076570270028   16.46139397266072
O         9.18454297184349    8.10438402771714   16.93494062042022
O        13.77204721433027    2.08340791059453   13.34219110059948
O        12.07040895175087    3.13868951535384   12.32229612635895
O        10.00345530205486    5.03960369811980   11.31828987366003
O         8.38931123792163    6.54989785043713   10.93116422955391
O        12.77309175070542    7.23713042054972   15.54886463166928
O        14.05509485051466    6.48035342251959   17.22424715691017
C         9.11849233794929    7.30938911008388   14.69638926407915
H         9.66125042217702    8.14919104234100   14.24717638000992
C         7.58654220893788    7.45846848571789   14.63565437168827
H         7.31095619402808    7.99178790656700   13.72509736292848
H         7.19575816332393    8.00036611668229   15.49317013439519
C         7.11523613279655    6.00215111396062   14.56828657998028
H         6.29506518139343    5.84312243452948   13.86827662683016
H         6.79544302758996    5.62848385151921   15.54371576472535
C         8.36605921465654    5.26733826543034   14.14019267161133
C         8.41636373409396    3.87569585715242   13.93723543092579
C         9.60988676963201    3.13489211565452   14.08653296678555
C         9.60932549187705    1.64148580877218   13.85934854849034
H         8.72985401706538    1.16018267391543   14.28632280967814
H         9.60409930850718    1.45938270324847   12.78226403900874
C        10.91797714550836    1.19911979600865   14.50780785684227
H        11.44164751108601    0.42702234463033   13.94747287696732
H        10.74225673243777    0.83265548142149   15.51957602031412
C        11.72871463929134    2.51602804416607   14.56822983812329
H        12.33404848785240    2.56369640754753   15.47913848648797
C         7.21769752920904    3.20325731579803   13.67946755271854
C         9.65237469758400    7.15829745265754   16.12304487655347
C         9.60142586689155    8.07914704305825   18.29600516940741
H        10.03543156092514    7.10681961153391   18.53576746524143
H         8.72136717830453    8.26514488960305   18.90979159610406
H        10.33697665853686    8.86888180696199   18.45725594006188
C        12.66907309100728    2.56779306225077   13.36066049173699
C        12.77865760792685    3.14329210251410   11.09095843567093
H        13.76972858895079    3.58337694097536   11.21642002610466
H        12.17400207205203    3.73586192710975   10.40987671643709
H        12.88928558588265    2.12094427734384   10.72073673107267
C        10.51405889034869    7.38743788095949   11.57761825667361
H         9.92838807438856    8.13584384475840   12.11849966799216
C        11.08222203202031    7.95887869894292   10.25834026535345
H        10.42217492641393    7.76695442570767    9.41471075554252
H        11.21297199499884    9.03653437336520   10.35727764357986
C        12.43440617338910    7.25872427569679   10.14106391171729
H        13.23345784018448    7.91752148671966    9.80195960588226
H        12.39712006617998    6.40472755208526    9.46102622785719
C        12.68122536478549    6.75637080826464   11.54578406924131
C        13.94535188514830    6.25499728200946   11.91326689469296
C        14.20345398231802    5.69202137548646   13.18038062534908
C        15.59352859894872    5.63551176409530   13.76997142715149
H        15.97097986057473    6.65206492946258   13.90382581275445
H        16.28284603109228    5.10885121813595   13.11013934864456
C        15.36369474821567    4.91999998739884   15.10318630232768
H        15.59374924822498    3.85859875298836   15.00896684694399
H        15.93625865350175    5.33841866301812   15.92745355822618
C        13.84662221984583    5.08677760723311   15.30817539003887
H        13.40232307600627    4.26819093920600   15.88130878019307
C        15.01078617647211    6.39747648701106   11.01661057495321
C         9.62059138052560    6.18182337230307   11.28290541459615
C         7.49020547451826    5.49570462112027   10.59325846091271
H         7.81601045613474    5.00275061420316    9.67574217097883
H         6.51860986344962    5.96062066868305   10.44878520755673
H         7.44881353291378    4.75653003213579   11.39490244677026
C        13.48604917561218    6.38809701757897   16.02494292173705
C        13.74501194954583    7.64832935961323   17.97440167165935
H        14.22079185085940    8.52314088006320   17.52628112229923
H        14.12850581805500    7.47879140103971   18.97726203164956
H        12.66497434775653    7.80061943018786   17.99199008636105

