75
CSD_code = ETEHUG | q = 0 | S = 0 | Stoichiometry = C28H32N6O8Zn | MND = 4
Zn       -2.83188264678928   -7.46078270815308   -2.19071837900172
N        -1.26187743928005   -7.07522348837614   -3.33295336763321
N        -1.98916503338648   -6.59723912499926   -0.61880633712177
N         2.31190758630357   -4.79597645262113   -1.26744888196099
N        -3.29720283945205   -9.25868231772550   -1.58031842276417
N        -4.40125578308785   -7.22238652294493   -3.33035099531611
N        -7.42374242487565  -10.83095780833694   -3.20725419803192
O        -0.34708134462260   -9.68230093399109   -5.10784290294388
O        -2.49505047005311   -9.38991568029642   -4.54413394375957
O        -4.69108553469006   -6.54123068856740   -0.67089958049257
O        -4.67341095504737   -5.10416018134668    1.03809261810409
O        -0.87545846610048  -11.39645132007113   -1.89087928112257
O        -0.38816141790123   -9.28558585595047   -1.32328608984745
O        -5.28185947883078   -4.08397712095093   -2.54962953932172
O        -3.16047073820077   -4.74024180591922   -2.81639991678483
C        -1.18931316395137   -7.44126216842164   -4.73536522831019
H        -2.06824381087734   -7.04405395680366   -5.25447959236316
C         0.14006713923979   -6.89520558882272   -5.28574350979561
H         0.72208378419352   -7.71129094701722   -5.71252973830424
H        -0.03714238948272   -6.15206101103072   -6.06061872797753
C         0.83140498846208   -6.28606264418743   -4.06389214703375
H         1.06825404868534   -5.22937774447786   -4.19688083249739
H         1.76189182518103   -6.79660408707203   -3.81127794823205
C        -0.17843127323488   -6.46371266006911   -2.95832718876328
C         0.07550317401906   -5.96298022518605   -1.66536623517385
C        -0.82400212702678   -6.01705838928406   -0.59049623823146
C        -0.52487666769830   -5.36828264161667    0.74071204627567
H         0.17871368039197   -5.99602932384289    1.29287123395282
H        -0.06980183604734   -4.38535169788901    0.62571256897787
C        -1.89845892091591   -5.32843575240620    1.41634936484818
H        -2.35650364176870   -4.34543981520610    1.30603239537822
H        -1.85582204796521   -5.56478424195745    2.47662683362413
C        -2.69700842689253   -6.38160876713755    0.62802196574572
H        -2.75693851276259   -7.33249994594863    1.18051611259912
C         1.30499974230554   -5.32264098785719   -1.44901239827670
C        -1.27036477269518   -8.96494973174983   -4.82456882945467
C        -2.70412121616945  -10.80016029240840   -4.62345189716595
H        -2.36314940284619  -11.16813989613753   -5.59327033431164
H        -2.14904539796399  -11.31555069249498   -3.83808768237430
H        -3.77333525159477  -10.95488540213769   -4.50747458878138
C        -4.12480188843655   -6.02430365531625    0.26319043230665
C        -6.00477993910476   -4.70802471017336    0.69712521693612
H        -6.03731804841560   -4.34778391161927   -0.33342130272495
H        -6.26808237388658   -3.91674720988223    1.39345889913661
H        -6.68477430211597   -5.55467936917413    0.79949748683528
C        -2.50886603124695  -10.07999546861930   -0.67911832220238
H        -2.29099280240866   -9.51242822275013    0.23291911036728
C        -3.30660299057223  -11.36958165313846   -0.41635870197721
H        -3.55116411178107  -11.46668264312830    0.63956905014004
H        -2.71392616190742  -12.23289293201018   -0.71721714387944
C        -4.56181809662846  -11.22070669895507   -1.27952496749023
H        -5.48157625813594  -11.25532780463804   -0.69386409841979
H        -4.63666684974303  -11.99365737649963   -2.04563724262833
C        -4.39982701775660   -9.86437168842800   -1.91876018694464
C        -5.39164121688537   -9.34608027958438   -2.76837330091085
C        -5.38457914746669   -8.07400920371598   -3.36663599929552
C        -6.57178195673028   -7.57724048347300   -4.15296730930319
H        -6.61734649804696   -8.10495801580887   -5.10891960240952
H        -7.50737918478735   -7.76541365275803   -3.62828330710430
C        -6.26877074003161   -6.08986534539791   -4.33262855751989
H        -6.47528040722211   -5.73444224749772   -5.33956292325710
H        -6.84082833216317   -5.48613269290131   -3.62722839733707
C        -4.77642877256885   -5.98039744164698   -3.98253176001461
H        -4.14300555903530   -5.83408635037284   -4.86933208398467
C        -6.51347176286788  -10.15693086306121   -3.00333529143728
C        -1.17371037747225  -10.35512236287690   -1.36721796602117
C         0.89641659550136   -9.42754722258482   -1.92865452329697
H         0.80095557259807   -9.55609788164091   -3.00783605407206
H         1.40349265371898  -10.30219522843653   -1.51618232921060
H         1.44515549372854   -8.51974360982060   -1.69295407975099
C        -4.47393089516225   -4.83085574541022   -3.03464458225906
C        -2.73656013670810   -3.65620066806068   -1.99913197617627
H        -3.15134368103373   -3.74584088613482   -0.99386871508439
H        -3.07303703055122   -2.71174676553867   -2.43322559624449
H        -1.65129028125055   -3.70056908751672   -1.96841406111662

