47
CSD_code = ETEMIZ | q = 0 | S = 0 | Stoichiometry = C12H20N14Ni | MND = 6
Ni       -0.00003126205270   -0.00009099931316    0.00002771230380
N        -3.57617727533219    2.16278623626301   -0.63778667895253
H        -3.80651599457989    2.50126275389275   -1.55918527414669
C        -2.57345401237511    1.23323929236567   -0.50547664548829
N        -1.85474734230831    1.31740339925758    0.55390593853449
C        -2.30421623913459    2.46944344308346    1.30590994125922
H        -1.45405340084215    3.11729750227526    1.52814686008849
H        -2.72993770490484    2.12415226831500    2.25226248953940
C        -3.36661874397272    3.15552672460736    0.41023043005727
H        -4.30381399743021    3.34142538135404    0.93927394515173
H        -2.99732326498131    4.09820614862060   -0.00585737416704
N        -3.16969303787157   -0.22455720851145   -2.44229286496630
H        -3.87102201913828    0.38410036700690   -2.82631471146897
C        -2.31566266116805    0.16848104680741   -1.46073655525584
N        -1.22660497391202   -0.51342333555446   -1.38745326990322
C        -1.22803880393093   -1.51389876229531   -2.43441069425326
H        -1.27605707281673   -2.50443492808535   -1.97330183680847
H        -0.30275608159686   -1.44408658921244   -3.00958846024847
C        -2.49064844281110   -1.20442859977352   -3.27383301812114
H        -2.23835611515668   -0.78604652620585   -4.25508378598232
H        -3.12349028144246   -2.08333850539073   -3.41654857502348
N         0.58377648663001    1.44559804177321   -1.05103000735539
N        -0.15808960494743    2.04351121668381   -1.71999869347396
N        -0.85112825381179    2.66248514061422   -2.38724891994982
N         1.85440812331174   -1.31795234549770   -0.55362669508265
C         2.57329133147466   -1.23353224341005    0.50562522541288
N         3.57591559377130   -2.16313420718034    0.63807915564741
H         3.80653912110473   -2.50122961684529    1.55954447761219
C         3.36598927094365   -3.15628213987923   -0.40947472052197
C         2.30355194843854   -2.47039912233142   -1.30524657527735
H         1.45324379533721   -3.11820610671938   -1.52707288416067
H         2.72916315891739   -2.12555459489347   -2.25180816492275
H         4.30305287149208   -3.34260505474479   -0.93859908892926
H         2.99656534441584   -4.09870070153328    0.00709566865624
C         2.31579246877587   -0.16839830983524    1.46055041661155
N         3.17015487166950    0.22516104111173    2.44159181633542
H         3.87186183402408   -0.38311902913083    2.82551411401537
C         2.49148248000269    1.20553150191089    3.27283183561055
C         1.22838662431339    1.51434078329225    2.43388079393303
N         1.22665456010809    0.51339742376095    1.38738564752973
N        -0.58401508420730   -1.44571582669513    1.05129545843931
N         0.15803644558496   -2.04350279104088    1.72025305369490
N         0.85117045914823   -2.66232970286804    2.38756532536956
H         1.27591376520199    2.50469667106451    1.97232967109096
H         0.30341009808846    1.44453842592171    3.00956534846683
H         2.23975637478981    0.78779497143834    4.25449945689069
H         3.12433464318074    2.08458746552272    3.41461071221409

