38
CSD_code = ETESED | q = 0 | S = 0 | Stoichiometry = C13H17ClO3PtS3 | MND = 4
Pt        1.11777332701976    4.24079531644822    4.39071405175900
Cl       -1.00406877174724    5.05131833984546    4.08715574127304
S         3.21454764941718    3.33156123088402    4.68387803972037
S         5.96362566779594    3.93694387798167    4.91786587771222
S         0.19806099151145    2.22195499770815    4.18350370497577
O         1.75000138273983    6.14931552994864    4.56566287464428
O         4.69408387473068    8.24751689349683    6.25025887916043
O         1.07283338397294    1.07016415029861    4.27473248694936
C         4.34411551483083    4.60070469637655    4.77103444593059
C         4.13778587328130    5.96540435695251    4.73472432171026
H         5.00721384315762    6.59884627002431    4.75742019956359
C         2.91432972434257    6.64337962625571    4.66820121865019
C         2.94478423568202    8.12914714557770    4.65277074556953
C         2.00422281011777    8.77146427443187    3.85144610923369
H         1.31619621538362    8.15857192792923    3.28959203336848
C         1.94884126889498   10.14854238204887    3.76937531904976
H         1.21871719905197   10.62596948489713    3.13523034706891
C         2.83611894260726   10.90536647749916    4.51284513391722
H         2.80994507341383   11.98356477251463    4.46156884771314
C         3.76001107129039   10.29103649605702    5.34014418149722
H         4.42920629706111   10.90630238128604    5.92019915331185
C         3.82838699577084    8.90419687063782    5.42729480242326
C         5.45448306965923    8.99319822310971    7.17232230251027
H         5.97386598874137    8.25791484188272    7.78560089073375
H         4.81817289610138    9.60990339973628    7.81324288156490
H         6.19204020964999    9.62674285616133    6.66889281845426
C         7.05222161812191    5.35625674013803    5.25865857819178
H         6.66753451110240    5.92027593119211    6.10194883597027
H         7.15026732783853    5.98064621019173    4.37584649828882
H         8.01480876351330    4.92107983841326    5.50861208432657
C        -0.74984641092539    2.06492811141286    2.64170930271195
H        -1.46686613872706    2.87738247023964    2.61279267228579
H        -0.05130857478249    2.14178345702569    1.81509394387394
H        -1.23197959487816    1.09440288472172    2.63228802768662
C        -1.15155684426756    1.97662642801446    5.37453204026235
H        -1.85509879694371    2.79136783099114    5.24707494805366
H        -1.60658545251078    1.01163611921779    5.18406305361092
H        -0.72078514204251    1.99528715844785    6.37020260626007

