41
CSD_code = ETETAA | q = 0 | S = 0 | Stoichiometry = C14H19ClO3PtS3 | MND = 4
Pt        9.21859983021623    0.83582237504827   29.25661198952837
Cl        7.17264825391387    0.98544093170744   30.26854850625245
S        11.33019466687421    0.67899252763356   28.35667329032708
S        12.66634965967181    0.27633969920479   25.76012441665330
S        10.05395826833304    0.92403149414886   31.31980096650837
O         8.26959392709155    0.77647923882197   27.47737865956169
O         4.53559369568567    0.38258002237271   22.52193302349961
O        11.49819700304806    0.86568526740593   31.45205622524353
C        11.18417131398312    0.48970923680911   26.67594791639743
C        10.04238340207637    0.47881815264530   25.89053404232120
H        10.21748061277368    0.31021549004842   24.83801282204951
C         8.70933609668758    0.63055188239661   26.29179311516641
C         7.66054906465702    0.58940368411248   25.24853186883601
C         7.87919780585349    0.98209358609983   23.93153447811416
H         8.84217827971473    1.36159963464849   23.62714835143634
C         6.86276140241661    0.93289928213002   22.99614636936447
H         7.06791462995333    1.25443003510673   21.98720876676534
C         5.59588273216968    0.48318016257352   23.36003883126579
C         5.36599664006972    0.10508995049057   24.68675644890745
H         4.37833803844467   -0.23060377309476   24.95934791399078
C         6.37804306241147    0.16666934013212   25.61345258936644
H         6.19786515726962   -0.11835295396283   26.63850589545941
C         4.69795919377667    0.74687546124178   21.17187677702712
H         3.73065509542011    0.57551698288711   20.70260903813189
H         5.45398624278430    0.12931372787468   20.67756679570629
H         4.96608652553346    1.80291122389357   21.07070852594427
C        13.97931983469826    0.31455681271175   27.03343740324517
H        13.91451149361865    1.27785118335436   27.53846856468412
H        13.76298765199689   -0.48038499797286   27.74662463866823
C        15.32934979656726    0.12022615139709   26.37200020956924
H        16.11133505953833    0.14376626117048   27.12730036951625
H        15.51821251502327    0.90955338763333   25.64832237775614
H        15.36914103221152   -0.83656533593004   25.85699195374917
C         9.48297349963799    2.38783357187320   32.22975175780564
H         9.86643217160181    2.33339114156973   33.24197472043367
H         8.39933250721788    2.38762654517698   32.20358843105420
H         9.87725607053635    3.26557278724004   31.72828449728542
C         9.35766808334862   -0.36662611343033   32.39031938853736
H         9.75669698215710   -0.23576492226092   33.38941743450689
H         9.66081519113172   -1.32889160113235   31.99083638650204
H         8.27864750987826   -0.26613753377531   32.36493424286388

