73
CSD_code = ETETOM | q = 0 | S = 0 | Stoichiometry = C22H34Cl2N6NiO8 | MND = 6
Ni        5.10380278176814   -0.00229080612913    0.00055991619000
C         2.73994944200913   -1.27756424538236    1.24086827533934
H         3.36733471140230   -2.09174733419880    1.62007609840108
H         1.88331694319889   -1.13200938600357    1.91404817272263
C         4.06835731981489    0.30657710044932    2.56927626972581
H         4.58830337999572   -0.56475625856151    2.97906028527014
H         3.24357058655049    0.59217858968872    3.23412691902623
C         5.05675657184519    1.45456842014599    2.38761300432331
H         4.54990322769563    2.34107915903467    1.99241639836735
H         5.54109096289519    1.71917651618427    3.33631071489411
C         6.96603423353793    2.08875577019693    0.96764726215369
H         6.35947437457804    2.87038596676056    0.49556962131958
H         7.46432534654679    2.51361138328959    1.84883453676068
C         1.19246249215840   -0.75619181120220   -0.56258530203117
H         0.31731957648824   -0.90907251570249    0.07906395037877
H         1.47601388657963    0.30063167666356   -0.49600433615592
C         0.82235043486884   -1.06945954313492   -1.98547758265511
C         1.18250327503592   -0.20338989617486   -3.01105708104552
H         1.70682377245333    0.71480187662535   -2.78287879592609
C         0.84701101847276   -0.49330606862343   -4.32316282126644
H         1.12488795152516    0.19070967760623   -5.11104898166082
C         0.15187912575289   -1.65239481664644   -4.62250279262227
H        -0.11242572597836   -1.87668738327216   -5.64508792732080
C        -0.21138018616646   -2.52022330234045   -3.60531618696647
H        -0.75933140686007   -3.42208916444732   -3.83449019601171
C         0.12130626973847   -2.22995125313135   -2.29458879588197
H        -0.15878069002733   -2.90398975768556   -1.49887972781241
N         3.57305131572029   -0.05413713090576    1.23547392833962
H         3.00005251319448    0.73607401602606    0.89439318302303
N         6.04377338693729    1.01436015678630    1.39480042330497
H         6.59560101332384    0.25961619417978    1.81924700031121
N         2.23906159687746   -1.65463731974020   -0.04535232324080
Cl        3.44493235149017    2.86964558348771   -0.77780690499357
O         2.86802661600197    3.66764258626771   -1.77556905845370
O         4.21006002798431    1.81238961549331   -1.40216524159308
O         2.43222866842203    2.23265717477641    0.01659790003952
O         4.30667015995621    3.60419451274942    0.07476715225446
C         3.24063725034234   -2.09247056387942   -0.96718292300150
H         3.84670125968587   -2.87463983518446   -0.49533145954990
H         2.74211985998416   -2.51665502679757   -1.84856748104818
N         4.16368401022068   -1.01854765656446   -1.39385648509060
N         6.63464838569918    0.04953029987871   -1.23435804137774
C         7.46723995172088    1.27331015319387   -1.24012052577698
H         6.83950433863793    2.08706048880199   -1.61968377952545
H         8.32396450797855    1.12786359462711   -1.91321056663086
N         7.96789018712719    1.65118422059503    0.04594901863152
O         5.99806575544938   -1.81614420392043    1.40423943946176
Cl        6.76299668197643   -2.87339022553130    0.77962930080723
O         7.33949528102708   -3.67197438041179    1.77714727610391
O         7.77601232871464   -2.23639460944332   -0.01436075482281
O         5.90111278180164   -3.60730630118168   -0.07337955276297
C         9.01450878138911    0.75340154297876    0.56406444215350
H         9.88842363129150    0.90289038513809   -0.08001227618179
H         8.72979585519433   -0.30341001794289    0.50210783804707
C         9.38779850531241    1.07235337013602    1.98486096086563
C         9.03097824556396    0.20999599471903    3.01468858463239
H         8.50712186867548   -0.70963633920043    2.79127792674683
C         9.36886195831193    0.50570868983138    4.32488548860496
H         9.09354130422047   -0.17540395526762    5.11618131258666
C        10.06298914565433    1.66697871447512    4.61802604512110
H        10.32907400850316    1.89583604422643    5.63913554673328
C        10.42292195209917    2.53114751195711    3.59654758776904
H        10.97005015358791    3.43472310123426    3.82089420868621
C        10.08791454996556    2.23504864979233    2.28772943136557
H        10.36523660630263    2.90624507742634    1.48866689645945
C         6.13950794995920   -0.31158112511820   -2.56811569626885
H         5.61982877120300    0.55972925594070   -2.97831426620413
H         6.96435755335716   -0.59757246073455   -3.23272431196387
C         5.15082964997338   -1.45929541985121   -2.38630232947974
H         5.65736873465056   -2.34581619405843   -1.99070372722671
H         4.66665266254160   -1.72405556150896   -3.33503483596490
H         3.61237980156560   -0.26350285084000   -1.81849503948366
H         7.20796840452995   -0.74036835065187   -0.89305420891720

