45
CSD_code = ETGLNI | q = 0 | S = 0 | Stoichiometry = C12H22N2NiO8 | MND = 6
Ni       -0.00011438305434   -0.00078412049110    0.00058447319411
O        -0.61641376774107    2.12679087189191   -0.79223422696865
O        -0.58151688516999    0.73372960864800    1.58208455490489
O         3.80867227369338    3.40711194195218    1.50894168945742
O        -2.38376893103449    1.47053804158126    2.63119566922899
N         2.00966427140086    0.38954979156791    0.37947932644826
C        -1.84026212891375    0.76918719974566    1.80226743860081
C         2.66951737091408    0.20638282482660   -0.92532286854559
C        -1.98460279980167    2.02218504740070   -0.85074536075742
C         2.44318123057472   -0.69315235408718    1.32443795045277
C         2.26749898725880    1.71350284305709    0.95536252068968
C         3.72630676103920    2.00849049078260    1.34099558576847
H        -2.56013158543260    2.58422950546027   -0.13104651863360
H        -0.36603574991517    2.83234085730041   -0.18158956092171
H         3.53323566718778   -0.69137325069228    1.42617852580079
H         1.97066984769259   -0.46361010866019    2.28440601604124
H         2.67801430455853    1.15647004266824   -1.46534152954231
H         3.69883158688313   -0.15449235289874   -0.82589795928973
H         1.98613401789714    2.47188216464396    0.22018569354644
H         1.63372987198648    1.83895207434363    1.83652585213241
H         4.40754759440417    1.68234812037241    0.54176440917191
H         3.99938495957590    1.49381475384430    2.27140749636627
H         4.68841901623399    3.64283090799434    1.82005032376176
O         0.61654273298552   -2.12637179045676    0.79714876658451
O         0.58127066627520   -0.73587189839805   -1.58044649915053
N        -2.00979932831039   -0.38981058293714   -0.37918389232871
C        -2.66911823092761   -0.21031135128451    0.92638029708105
C         1.84019356776885   -0.77466457612472   -1.79900684694565
C        -2.44394904459118    0.69541392489628   -1.32098947077412
C         1.98460665449183   -2.02116498948073    0.85690035642537
H         0.36695022048237   -2.83340943800513    0.18790725471438
C        -2.26766618492300   -1.71215899405348   -0.95874977452855
H        -2.67640969182186   -1.16163056615240    1.46418900019063
H        -3.69886472709696    0.14975849523300    0.82828337416225
O         2.38303914506847   -1.47768598442507   -2.62688508447087
H        -3.53410202185385    0.69417401676318   -1.42160533086740
H        -1.97251219917382    0.46815518273368   -2.28201917906241
H         2.56107565652278   -2.58492666147100    0.13931711834513
C        -3.72628859816152   -2.00587608592975   -1.34596923982569
H        -1.98655427629003   -2.47264412597362   -0.22566959260813
H        -1.63353286990972   -1.83534599132218   -1.83997545189298
O        -3.80817375435401   -3.40370944174361   -1.52035840436108
H        -4.40781343042919   -1.68359391362224   -0.54540902328636
H        -3.99931657715522   -1.48704247901251   -2.27408111330611
H        -4.68753923883447   -3.63820765048555   -1.83346676500159

