43
CSD_code = ETIBOZ | q = 0 | S = 0 | Stoichiometry = C16H16N4NiO4S2 | MND = 6
Ni        7.56592928037920    2.83253590993997    2.57673477174812
S         5.65155498405488    3.54111075219533    4.25605724784195
S         7.00899816160573    5.03620596887000    1.60258110365721
O         6.19649551477767    1.91432547343799    1.81813598890063
O         4.09123162263925    1.48437589773652    1.35154160644145
O         8.95620359247069    3.76424978391994    3.32491982970449
O        10.43724240685553    5.39895364198927    3.32103874874748
N         7.95472005535018    1.24392361976670    3.90241812828694
N         8.60132110070422    0.18902802538836    5.70465171841191
N         8.82784205116185    2.22031388217368    0.88868368763173
N        10.56225364185000    1.52559689320554   -0.25321114181841
C         5.95985960680539    5.29325685186522    4.18276106634664
C         6.52693067522319    5.92593345059942    3.07906746809187
C         6.72847985185357    7.30001008932697    3.10728504469716
C         6.42432041670007    8.03289224871233    4.23754952733119
C         5.90266581187170    7.39669294633621    5.35382227175365
C         5.66571418054502    6.03694466742217    5.32038830245933
C         4.49027077872449    3.27184444267609    2.86918058283935
C         4.94911646989197    2.11773224496705    1.93561918262632
C         8.77842534531213    5.44561782564542    1.61089908313703
C         9.46294864710835    4.83183388477376    2.86385651602871
C         8.57388420392850    1.36565852700464    5.05207703155969
C         7.95946859905341   -0.72800385817868    4.92237109363766
C         7.56365493837112   -0.05710426759177    3.80417455303028
C        10.13084329111036    2.07688715788686    0.89823881799705
C         9.46367538818624    1.30355502956420   -1.03415619633975
C         8.39434146793096    1.74075913470282   -0.31117398002831
H         9.01154605154846    0.01488389877531    6.60782464053577
H        11.51633619070638    1.30999407363350   -0.49327144195846
H         7.13061187816910    7.79276376552919    2.23525553630195
H         6.59488933044272    9.09844361219441    4.24597633651290
H         5.67137895392156    7.96197877507309    6.24351037888868
H         5.24929663493336    5.52506721627839    6.17370068686395
H         3.51249017276443    3.03931867935371    3.28966623067919
H         4.42691198210938    4.19108632281042    2.28654836837485
H         8.92794066454319    6.52343127733782    1.57027168607141
H         9.18929707386636    4.98524612302866    0.71092334446731
H         9.00716666560691    2.27522871111811    5.41882239262553
H         7.83905379285004   -1.75010901406256    5.21500703663975
H         7.02392147400429   -0.41064332741882    2.94888600877232
H        10.77900068293023    2.36700191893291    1.70254661388800
H         9.53073397260069    0.86877946038630   -2.00952062246783
H         7.35193239454683    1.73579828269184   -0.55855925091666

