83
CSD_code = ETIMIE | q = 1 | S = 0 | Stoichiometry = C32H39ClN7O3Ru(1+) | MND = 6
Ru        8.43711934155809    1.59913279106395    3.69960025146508
Cl        8.51126666443278    1.47037003671712    5.99511120358340
O         7.28138362877275   -0.03860390135035    3.69269645618760
O        13.37050411493165    2.38072394394721    1.42618618520624
O        14.14104427139532    0.54840900597762    5.74198294317252
N         9.80121574676947    0.22366777986400    3.63209767223532
N         6.91054196106882    2.95786930648740    3.86023910927268
N         6.95168023358373    4.07516363896363    3.11227012052888
N         8.29072425079343    1.94524133346196    1.71568812582798
N         8.14632395665522    3.20864507547823    1.27780262106788
N         9.62561556326809    3.25359955527841    3.77253306120425
N         9.29142862899467    4.31865309156953    3.01861440440044
C         7.92551515997024   -1.09459660814237    3.95677232857739
C         7.32389889907031   -2.36677542846211    4.24587084440394
C         8.16288437905787   -3.42712718654247    4.43081045785551
H         7.73272017420160   -4.38611224235780    4.66215602551009
C         9.58450269453298   -3.36456996120696    4.32431463370087
C        10.17609478910164   -2.16201572243874    4.06353606379572
H        11.24274172521655   -2.06085574775654    3.95795516634032
C         9.37897180049003   -1.00175372290563    3.91582475204332
C         5.81164687971840   -2.45628277835981    4.35081273864858
C         5.34277200790292   -1.49569699580834    5.45309997192784
H         5.76747631281598   -1.78517120858924    6.41177657473358
H         4.25881365523257   -1.52148772334874    5.53183220546106
H         5.65084717031492   -0.47690382528116    5.23501760650611
C         5.19658384700749   -2.05086774779954    3.00310155386381
H         5.46066149037371   -1.02832200089232    2.74741415575324
H         4.11328850420077   -2.12380250987305    3.05590550156481
H         5.54790878865342   -2.71198119429763    2.21319900352061
C         5.33012982195506   -3.86610080009995    4.69879723028672
H         5.61223021407134   -4.58111232343211    3.92930110416553
H         4.24531079320499   -3.86463799140593    4.77037813994480
H         5.72605570410288   -4.19181290628552    5.65767670523914
C        10.37183498696837   -4.64762520250270    4.50958579671054
C         9.93031831362622   -5.66268389587991    3.44491117490002
H         8.87624643375010   -5.90863727509514    3.53410880790567
H        10.50121498322498   -6.58108208937578    3.55455158813236
H        10.10685070712359   -5.26496421735546    2.44784772531082
C        10.09223405438673   -5.20638190357391    5.91284504963477
H        10.36106856456696   -4.47494774728774    6.67179569143447
H        10.68396997623589   -6.10368105075847    6.07478575465532
H         9.04594357870706   -5.46585175169584    6.04386032573197
C        11.88121142646368   -4.43269340378750    4.37108134436197
H        12.13712243363565   -4.05666282880049    3.38330528801419
H        12.39393507412253   -5.38115465854046    4.51007562507589
H        12.24987993351890   -3.74112615685291    5.12500696665134
C        11.15037937526397    0.55880983115538    3.61134602359749
C        11.64927749710937    1.26924538076608    2.52828674428733
H        11.03303583571561    1.46928505398049    1.66474389507059
C        12.97839229218508    1.69749689408752    2.52753052075691
C        13.78383819974315    1.42743922112262    3.62304275364087
H        14.81117134481729    1.74481555167112    3.67484745581927
C        13.27490506739006    0.72855057795984    4.72341214947536
C        11.96036292267038    0.28017086193739    4.71666295096506
H        11.52345960203354   -0.22156205281643    5.56452828831819
C         5.80426169380122    3.00819076809779    4.56999213892250
H         5.55760549350678    2.22245475777006    5.25840815375014
C         5.10134006348707    4.18782252432855    4.27843777520602
H         4.17072194384835    4.50504605573978    4.69963762737453
C         5.85884365701314    4.84596999430570    3.34545092899168
H         5.70655290428787    5.77934914708966    2.84320732502653
C         8.27851915318953    1.16721487304310    0.64851453914932
H         8.38077400998767    0.10170426595302    0.74214723178318
C         8.12187041372640    1.94219537460896   -0.51066137852993
H         8.07738675656617    1.59075943505261   -1.51990842055805
C         8.03779073261452    3.23894293318618   -0.07778609097218
H         7.91453943150287    4.15610257756845   -0.61550605927923
C        10.70420776565439    3.58912347473270    4.45090581757397
H        11.15813830274915    2.90351838599065    5.13971409335011
C        11.08777082583112    4.89914017028653    4.12869077007290
H        11.92260302717811    5.44099996064324    4.52020679412369
C        10.16557670051593    5.33827908337452    3.21640354946947
H        10.06958721933323    6.27382830549876    2.70435878934887
C         8.07984739145261    4.28647105736350    2.23439308641158
H         7.96091156921472    5.23973886912675    1.70456593685563
C        14.71998643314063    2.78735707545033    1.32799147500121
H        14.97883811573197    3.50403827713536    2.11241605949799
H        14.81132838820104    3.26667499311787    0.35523036429669
H        15.39799325030523    1.93144468638626    1.37551026718283
C        13.70668498776698   -0.13696849969931    6.89716342712148
H        12.87000216484777    0.37744403853816    7.37843675063658
H        14.56115488749240   -0.14445356624151    7.57076717393450
H        13.41950694028798   -1.16673318897861    6.66587503584275

