34
CSD_code = ETINUS | q = 0 | S = 0 | Stoichiometry = C17H10BrF3N2Ni | MND = 4
Br        5.01103108969414    8.03005598930729    4.03144824960062
Ni        4.14133150926986    6.61729300577821    5.40743706241810
F         5.71408351873700    4.49180023896536   10.07814881196291
F         3.76809159698605    4.54409516024638   11.01012617529947
F         4.58940045227741    2.68702870954031   10.32991031150168
N         3.54088414321099    5.30797173512611    6.60993522668675
N         5.02578977972790    7.30346741226794    7.12846538471450
C         2.85650337472117    4.27743634868974    6.08748492818588
C         3.07175524060900    5.69179364049545    4.13741427964016
C         5.90065519145516    8.99173721056804    8.56204269369262
H         6.42111023322917    9.93097579726880    8.65343501955256
C         3.99722682960244    5.31198927078113    7.86571878787527
C         3.83592039477430    4.16776420867707    8.65934903727580
C         2.51772083049189    4.50684988222033    4.69737304965529
C         1.70880230369269    3.66033773483220    3.94115595634129
H         1.29849700895967    2.76730943881787    4.38953854200167
C         1.94987010154999    5.12409428756694    2.06975708958386
H         1.72951341073416    5.37361573591783    1.04225730251883
C         4.47392884978680    3.98161761755599   10.00549127139426
C         5.44216894349041    8.30802485845040    9.67402939915180
H         5.57206220444546    8.70904359339640   10.66738669524949
C         5.64742508731598    8.46084961803063    7.30617152328331
H         5.95250572423162    8.98787212940805    6.41069450063334
C         3.09503680447668    3.10005533365115    8.14727884834033
H         2.94722294218095    2.21925981755315    8.75298502316303
C         1.42547026585746    3.96944695392505    2.62726877749669
H         0.79729964456916    3.31658931198652    2.03988253557126
C         2.76258005147972    5.97369962305559    2.80873592598951
H         3.14971508188964    6.85748410696778    2.32352264968468
C         4.64998833615561    6.58728683024323    8.21019414569188
C         2.57698710682305    3.15759037966710    6.87088577319186
H         2.00435911494163    2.33584906285560    6.47539253697861
C         4.80450819069932    7.09074947379343    9.49696324459392
H         4.41295464192483    6.57106548238276   10.35261924107630

