82
CSD_code = ETIRIJ | q = 0 | S = 0 | Stoichiometry = C38H36CuN2O2PS2 | MND = 4
C         4.08328002297886   10.73101314363441    3.29173551428711
C         4.57114798381866   11.77459860141277    2.33675729364108
C         3.76876484222267   13.46140554629105    0.80571628698154
C         4.58734020236496   14.60122263540194    1.41031108541272
H         4.65841151418924   15.41922943559654    0.69820875193981
H         5.58812364814921   14.25735872462565    1.65691468188436
H         4.10827999200630   14.96095839410985    2.31870885884088
C         2.35943853015443   13.93768039234678    0.45438743924582
H         1.77562185763199   13.10891454793116    0.06262574618054
H         2.40684372319866   14.72591206718740   -0.29164214804236
H         1.86393577361883   14.31696416521978    1.34425788975624
C         4.45991324295344   12.87127055178224   -0.42261918306192
H         3.89271745157229   12.01982974795988   -0.79339510713573
H         5.46208173657824   12.53722234644147   -0.16775966853127
H         4.52437335768679   13.62316862279746   -1.20471161152589
C         5.44870437831244   10.17947796866469    8.39979454678998
C         5.48481327242836   10.64348764310997    9.72577719781087
H         6.41182973090578   11.02555627169705   10.12483526152152
C         4.34832384571576   10.60484990474052   10.49421645846424
H         4.35428502050435   10.95693899220626   11.51599152327807
C         3.15816079934530   10.10247763301361    9.94144793001091
C         1.92922954439048   10.03253984881667   10.65382717075100
H         1.90959957763915   10.38576698352497   11.67469080001460
C         0.81079735285144    9.54085367925842   10.06640074105836
H        -0.12324705073655    9.49277084575593   10.60732508854661
C         0.83043600137835    9.07827410438508    8.72115837263559
C        -0.30077031595635    8.56715923773482    8.06299310553032
H        -1.24439081140501    8.51320204660217    8.58664852514416
C        -0.18685759206530    8.14170366656908    6.76216366315623
H        -1.03969613250022    7.74053919733687    6.23662312719383
C         1.04914490078705    8.21951121569065    6.10092199050398
C         2.03381227082442    9.12950822242690    7.98632878376809
C         3.21257419444964    9.65023299875500    8.60572463726838
C         6.66988151556812   10.21792525699320    7.54656266896647
H         7.45243298999083    9.59231589400836    7.97465545861547
H         7.04542895167255   11.23707693507087    7.47311548850883
H         6.42848977536680    9.85499453153770    6.54897170877492
C         1.20932650387390    7.72537670833078    4.70787224934054
H         1.97742588977155    8.29955447429690    4.18642193435605
H         0.27310664474188    7.78079573069218    4.15927180423426
H         1.54013483638388    6.68600163508017    4.72316663239818
C         6.18216042561801    6.93609425974585    6.44082985045745
C         5.48990873498447    6.80715598524725    7.64391585314052
H         4.42431021997965    7.00093887894909    7.65681814636361
C         6.15459958293998    6.45336533812746    8.80136314410291
H         5.61008229378212    6.35403803038390    9.72984150622227
C         7.52399483442338    6.23618184274770    8.77159836915946
H         8.04805679552290    5.96664241721434    9.67692549484354
C         8.21870553555810    6.37088295847962    7.58155648696621
H         9.28618780226367    6.20512924180264    7.55883555262978
C         7.55402212163900    6.72064933484150    6.41808365310233
H         8.10316574265282    6.83141658403123    5.49396587031666
C         6.50551376600546    7.77526887339786    3.75050973160932
C         6.96848992558605    9.07642510252163    3.58168826800077
H         6.54607409815330    9.87704382286990    4.17320722536096
C         7.93553545098749    9.35713477349526    2.63536339329055
H         8.26095914175158   10.37594669035033    2.49275838031591
C         8.45551213962974    8.33478517943005    1.85899905784967
H         9.20438350019304    8.55099679447896    1.11101916690668
C         8.01043550584409    7.03400015751706    2.03446730429327
H         8.41856164217430    6.23664845819187    1.42954559077558
C         7.03636914349197    6.74942566367137    2.97389506971209
H         6.68426903056387    5.73514273096231    3.10224711727833
C         4.42829085939724    5.95112121342265    4.44622203144643
C         3.94279089596506    5.89391357002024    3.13997360416704
H         4.08940798257802    6.73698918012077    2.48170850885964
C         3.27332531504593    4.77049477137163    2.69423059192564
H         2.90411614577499    4.73535826375695    1.67997811950618
C         3.07328488677387    3.69456734455467    3.54491889111265
H         2.55026595700376    2.81603470024571    3.19627593458225
C         3.54744116613141    3.74921742316377    4.84486616945671
H         3.39647023893360    2.91184744993957    5.51133576586071
C         4.21862508566024    4.87140193694628    5.29845212222974
H         4.58782133636112    4.89870084413332    6.31358715178898
Cu        3.92265145580796    9.11544648406256    5.90023288978077
N         4.34187105084380    9.69469386562837    7.87695460712693
N         2.11672604824959    8.71027523551542    6.70867140054137
O         5.74436198517622   11.94710746476807    2.11302477076969
O         3.55322475482643   12.42415056742942    1.79610663207072
P         5.21125369786936    7.50050002902360    4.99911470158330
S         3.72409232592246    9.26221863811415    2.62370243310910
S         4.03243140459709   11.18170734999960    4.90690674266510

