88
CSD_code = ETIREF | q = 0 | S = 0 | Stoichiometry = C42H39CuO2P2S2 | MND = 4
C         9.18199548051033    9.37295932600114   11.76295195496320
C         8.06379328144006    8.54435102283353   12.29151104980695
C         7.67196151506054    6.56212168921627   13.61814884437381
C         8.62841974063947    5.54396375814001   14.23904581263186
H         9.21746069296435    5.06880836898616   13.45905478508646
H         8.06914031080753    4.78725636534766   14.78187558505990
H         9.30818958929542    6.04685555303508   14.92181797167889
C         6.74136504120589    5.88589695355417   12.61227534312867
H         6.06448811951263    6.61533429440004   12.17521631244697
H         6.15866573918546    5.11729114901214   13.11345297524192
H         7.32645743444558    5.42922024116997   11.81686430827837
C         6.87690672345895    7.28738986590194   14.70358626299403
H         7.55674531932575    7.80408198350521   15.37840228820836
H         6.29180466522084    6.56843131307700   15.27096339507804
H         6.20497151947165    8.01588887079853   14.25701961750612
C        11.33853183278604    7.19162460271466    9.97444741966692
C        10.08644908159253    6.94673481897725    9.41166643646846
H         9.66233514323682    7.66439604071138    8.72064445862808
C         9.39290474407285    5.79971206551522    9.74314417786604
H         8.42427999081877    5.61249071234477    9.30196122216213
C         9.93642234523876    4.89813629620857   10.64539288848727
H         9.39602624146270    3.99733646218193   10.90078539189951
C        11.16916975141912    5.15224079600912   11.22384032291513
H        11.58648041129081    4.45533538252936   11.93675241689058
C        11.87023831927966    6.29914919867067   10.89823539615140
H        12.82693784002506    6.50313037353704   11.35874289420390
C        13.86648407360254    8.52917273326624   10.01045822403069
C        14.21767711119108    8.80832713392053   11.33015336607999
H        13.44996271472489    9.13936444292474   12.01969935089428
C        15.52781725243906    8.66947060506639   11.74445991001448
H        15.79576337124293    8.88325946118484   12.76850714793210
C        16.49745753382994    8.26623307350637   10.83991696616953
H        17.52367803563364    8.16058861644154   11.15979839262003
C        16.15409640754293    8.00564663408526    9.52358457794519
H        16.91314224091645    7.69712249554523    8.81886697561953
C        14.84236222191289    8.13803295518474    9.10288198956420
H        14.57963361114386    7.94123244622464    8.07318507342583
C        12.08058223936541    8.82213760306868    7.77818758206689
C        11.88307669729051   10.06155688695403    7.17847716412889
H        11.73978525373516   10.93268203960087    7.80814191619062
C        11.84724889801968   10.17103809134136    5.80064554490289
H        11.69104609047115   11.13599182292280    5.34074342091325
C        12.00097598402545    9.03895574776190    5.01690996583932
H        11.96898351479991    9.11917129450396    3.94032489302569
C        12.18441071025248    7.79939564863553    5.61079107324664
H        12.29335734748671    6.91765700963849    4.99584157459741
C        12.22295027902210    7.68497701612143    6.98830682999959
H        12.35235969135100    6.71760994234140    7.45509754143167
C        13.84645959949321   12.42106403086813   10.81743729527446
C        14.57038952017239   12.73852135036068   11.96070245279612
H        14.07216533223123   13.20084082666982   12.80127134109563
C        15.92553191765943   12.46396270344305   12.01589093911931
H        16.48681496075177   12.71622241506291   12.90378466587430
C        16.56301823452247   11.87278545746124   10.93856102479041
H        17.62169619256854   11.66538757846935   10.98420327449540
C        15.84124441636059   11.54019694191809    9.80250327603858
H        16.33484993201240   11.07029686823315    8.96485142717288
C        14.48689624517061   11.79943313882782    9.74652229379390
H        13.91138522918891   11.52651969901941    8.87068503034633
C        11.66282750778475   13.82966003389419   12.01552663265318
C        11.83088519912713   15.20151683859693   11.86201170843059
H        12.20518778827802   15.60034384885956   10.92963439395475
C        11.51066697632144   16.04821893103633   12.90760317822764
H        11.63931727805979   17.11479913042879   12.79263552050700
C        11.02338033479242   15.53436065720997   14.09943209910958
H        10.77260842678567   16.20299496709194   14.90986185042789
C        10.84834087210784   14.16808235580203   14.25036256520168
H        10.45939154886480   13.76966195739986   15.17573563408390
C        11.16184014049450   13.31480833192010   13.20843992312080
H        11.01926158655625   12.24485521567856   13.30283972549398
C        11.82088564217364   13.55102625757590    9.16895296132152
C        10.58988800731629   13.40054864521287    8.53482787881338
H         9.84673945182842   12.74704358376099    8.97574723311659
C        10.33442786541278   14.06681621255918    7.35049696103253
H         9.38000054607704   13.94709551616748    6.85972780837290
C        11.30710580797919   14.88203569712994    6.79384839449939
H        11.11088236497866   15.40185491211239    5.86752353014606
C        12.53479208917242   15.02955528254247    7.42039633834195
H        13.29213840183156   15.66335997427637    6.98196609209793
C        12.79730561835944   14.36652789864060    8.60564545102056
H        13.75921674374680   14.47111576184510    9.08902607649580
Cu       11.22388005207116   10.58399282171791   10.65369660252610
O         6.90040418820377    8.81468605550786   12.12607431205531
O         8.54798732360320    7.49458551988440   12.94323440533351
P        12.11451002013205    8.78862417937677    9.59616684105317
P        12.04815392061013   12.62067302824654   10.71241759681739
S        10.58468318820322    9.47649307279728   12.66379462087898
S         8.94524736517062   10.16657109583087   10.31568162250188

