57
CSD_code = ETIVUZ | q = 1 | S = 0 | Stoichiometry = C21H24CuN9PS(1+) | MND = 6
P         2.89419601158854    6.45555102619516    6.92640298595308
Cu        0.99540115919525    8.92881549600149    8.46594559431378
S         3.94791756439832    5.08345214878060    6.08164924767455
N         3.26842880677617    6.74223613075995    8.56382186997459
N         2.94186466795487    7.94779962545737    9.02510818790816
N         1.90063328389824   10.28064058601275    9.84283215387210
N         3.01909601957803    7.99731883150402    6.21174173602455
N         1.99643537821818    8.81798900066686    6.44038185135425
N         0.00921749679380   10.40146141053944    7.29271285992973
N         1.21605913869649    6.16088447173696    6.94683997024451
N         0.53569142305345    6.79057095073733    7.90191074082354
N        -0.67202717634830    8.39624434970896    9.67510223164170
C         3.95667561733205    5.74813238192139    9.36496971218785
H         4.94153272697390    6.10510467462541    9.67426575490967
H         4.08536691800060    4.85837621890520    8.75009809579914
H         3.36554882116810    5.49574433022004   10.24757377672098
C         3.29228954460046    8.38263214794619   10.17683792788245
H         3.89922382011603    7.82741525680351   10.88668872125633
C         2.89299293578255    9.72495358795221   10.54623788256131
C         3.52851032740003   10.41039101637004   11.58494250146045
H         4.32676450821008    9.93750714449959   12.13521691888731
C         3.12567553656506   11.69882293842348   11.88168917115013
H         3.59671386334608   12.25044725965276   12.68075257001954
C         2.10663003896318   12.27129770469351   11.13160345271862
H         1.76341482162523   13.27319917316235   11.33185585224068
C         1.52933868099376   11.51824874530120   10.12104180052680
H         0.73007998860865   11.92149886439556    9.51373798288122
C         4.14861369616713    8.35296802456380    5.37428356582498
H         3.83077462360830    8.54581607022068    4.34726824854915
H         4.83868764630891    7.51026325940810    5.37386239675414
H         4.65463712605792    9.23496114183499    5.77205619706918
C         1.85987921565396    9.95474569240609    5.86881515690283
H         2.54812728321757   10.36126219256989    5.13275021389375
C         0.68621371742331   10.74040212838314    6.19036688810426
C         0.27699293959254   11.79926227999311    5.37567852613989
H         0.84199128538044   12.05026454328044    4.49170183465929
C        -0.86171897845730   12.50490975626282    5.71637405707188
H        -1.19791031701821   13.33046350849965    5.10804608965186
C        -1.56617211251104   12.13088203387126    6.85320692808163
H        -2.45879405722971   12.65546708235955    7.15280628083306
C        -1.08796452234268   11.06886606973972    7.60505552459711
H        -1.60231938840762   10.74368029633577    8.49942692916948
C         0.60092825120727    5.23528686490754    6.01490958365528
H         0.17207540810143    4.37764934020392    6.53793388659570
H         1.37815193461226    4.87953913753021    5.33985652769302
H        -0.17758164442970    5.73795609208426    5.43752668001464
C        -0.69903672142547    6.56889473528693    8.15479146729138
H        -1.31410421499548    5.84081433873302    7.63300673093806
C        -1.31320185592563    7.30640934036830    9.23966557283001
C        -2.51767481322850    6.88749631993804    9.81072419413890
H        -3.01279144710379    6.00375598842546    9.43989099020007
C        -3.05099651458373    7.61538562287268   10.85782089823281
H        -3.98217644120513    7.31734837850266   11.31470707846715
C        -2.36600446963550    8.73452107782666   11.31270944794284
H        -2.74846011233048    9.32847896302426   12.12674807361258
C        -1.17803696087579    9.07958372613392   10.68695693573944
H        -0.61120047911286    9.94403052146027   11.00569154442883

