39
CSD_code = ETIXIP | q = 0 | S = 0 | Stoichiometry = C16H13MnN4O5 | MND = 6
C        10.34342940740737    6.52433171368939    3.02286945212002
C        10.51438032265056    4.94985396727514    3.08088075936667
H        11.58559906530428    4.74390271661681    3.02074003823875
H        10.04789793271095    4.55177070067182    2.17687365021777
C         9.91708943309789    4.27320068872504    4.33506698953388
H        10.11000997994277    3.19310226749164    4.28138764892429
C        10.59257705058628    4.80310533887246    5.56017156637857
C        12.09501489132048    5.05744943761222    7.14205699569331
H        12.97185770359383    4.87208184660649    7.72428656177781
C        11.10433864896716    5.97065115001563    7.29789565190939
H        10.98917178850136    6.72428829387020    8.05246695514030
C        12.54297978244036    3.28433913871295    5.48733196521439
H        12.01697355227948    2.65986194438503    4.77975987001781
C        13.81496767990263    3.05889943684337    5.77436885867548
H        14.38098605976998    3.67178994394594    6.45239065651030
H        14.33742627343755    2.24050659341861    5.31494769310070
C         8.43374337505322    4.46525174492955    4.37142985796188
C         6.29776945106376    4.09422131251236    4.01769633206876
H         5.41687071461851    3.62709259291132    3.63285925802069
C         6.45245861682076    5.21767032151657    4.76186806792801
H         5.70482311597904    5.87690376140107    5.15818619837469
C         7.87038743445836    2.49053401476400    2.99453346261024
H         8.89452907017634    2.45308270169621    2.65346303107369
C         7.01048149420985    1.53787742161180    2.67114478456211
H         5.98493542282055    1.53900153088695    2.99412724388154
H         7.32160477489331    0.71147447353450    2.05951472059193
C         7.45669212068440    8.21175438139575    5.06679793124542
C         7.84775722243088    7.01385986603390    7.28552916374100
C         9.60981843644771    8.55063824272982    6.26483689950062
Mn        8.69751673739581    7.11073121907336    5.72934743806459
N        10.18162252058112    5.80966330137000    6.30143496681823
N        11.77463655283147    4.31205194216116    6.03362512698392
N         7.78543658636636    5.43777573323618    4.97508954205963
N         7.55905046100660    3.61378989793939    3.76155730134102
O         9.70276066966370    7.08165698296142    3.94369816150644
O        10.85880100422718    7.06205304108027    2.06106105139396
O         6.67402015350603    8.94570004312347    4.66275964020927
O         7.29177844555068    6.97340935021951    8.29696868889032
O        10.16220604730139    9.49627094415862    6.60387581835267

