66
CSD_code = ETOCUM | q = 0 | S = 0 | Stoichiometry = C21H31Cl2N9O2Zn | MND = 5
Zn       -1.00170405946494    4.41112026322484    3.16989344245669
Cl       -2.76344241708601    5.30109449775325    4.19210640689883
O         1.75300878002264    4.75950870607990    7.99294396802163
N        -1.00170702908971    2.34024840954601    3.16988665725404
N         0.76074634123715    1.90721470211476    6.22178742201373
N         0.08291300129802    3.82854494050880    5.05747901474586
N         1.28068465404630    2.69875832234117    7.17257507851936
N         0.62605917236347    4.60802314679391    6.00883308329804
C        -0.42593719821259    1.68349214805037    4.16659503899453
C        -0.40465923720913    0.29113511482245    4.20763490936160
H         0.07006031531116   -0.20553572290100    5.03696788932677
C        -1.00170836633362   -0.40631954066599    3.16988372129064
H        -1.00170975375120   -1.48603121016035    3.16988200168996
C         0.17572587165600    2.51468493550201    5.21270532891789
C         1.25762558385725    4.08553029584981    7.12189680189717
C         1.97716644221007    2.03411283688576    8.26477757452265
H         2.09818946097590    2.79286608532357    9.04402653087664
C         3.35005339458367    1.57322670699778    7.77738116572073
H         3.93702828656609    2.42476430233147    7.44118869865647
H         3.23510150450720    0.87391385716787    6.95226148582411
H         3.88272457585610    1.08292064584431    8.58688300078190
C         1.14000346148206    0.87097882868604    8.78062937779235
H         0.15818747404185    1.21710324047215    9.09378902817613
H         1.63745207317964    0.41593763234957    9.63197082864605
H         1.01556098418271    0.12551185464626    8.00038008971739
C         0.53170096677509    6.05049560514137    5.80816816933118
H         0.00397702856650    6.17044953978560    4.85667891934117
C         1.92375136879386    6.66055483298635    5.68291832953980
H         2.46598495244683    6.18603399885087    4.86813165632305
H         2.48023254138700    6.54711728397171    6.60910988369680
H         1.82578417650609    7.71814219738266    5.45690584026207
C        -0.29725851029281    6.68622655777530    6.91887264610046
H        -1.28911376828520    6.24064655386654    6.94337011356001
H        -0.40432806580123    7.74748480319715    6.71500715143527
H         0.18633446712431    6.55865134836712    7.88336249481197
Cl        0.76001010774416    5.30110237592617    2.14764784809507
O        -3.75644667804043    4.75951128244094   -1.65314821262187
N        -2.76416822546036    1.90721894806854    0.11799265747897
N        -2.08633713859778    3.82854673153967    1.28230367711474
N        -3.28411583453172    2.69876374110777   -0.83278940784271
N        -2.62948625767639    4.60802510595178    0.33095271470577
C        -1.57747842718823    1.68349489060131    2.17317743065505
C        -1.59875707768975    0.29113806699936    2.13213373686243
H        -2.07347885298059   -0.20553030901119    1.30280116275965
C        -2.17914919717443    2.51468853082512    1.12707409622128
C        -3.26105816283336    4.08553422945881   -0.78210806594950
C        -3.98058359244406    2.03411615825297   -1.92499719284546
H        -4.10162714932877    2.79287788259400   -2.70423515104872
C        -5.35345626385836    1.57318908709962   -1.43759974692922
H        -5.94044973749334    2.42470784647505   -1.10139184826188
H        -5.23848340848734    0.87386741207279   -0.61249020008216
H        -5.88612053362467    1.08288158535958   -2.24710532005983
C        -3.14339020146175    0.87101124391711   -2.44086539849131
H        -2.16158673510391    1.21716809344078   -2.75402861357590
H        -3.64083080534466    0.41596355557527   -3.29220774330530
H        -3.01892008489279    0.12554087058797   -1.66062342776818
C        -2.53511408442795    6.05049515883552    0.53160976296019
H        -2.00738255395090    6.17045152904156    1.48309404668125
C        -3.92715894807468    6.66056583546402    0.65686569901694
H        -4.46939114604157    6.18605329117774    1.47165817151013
H        -4.48364875139989    6.54712972618300   -0.26932081611719
H        -3.82918100730304    7.71815337541898    0.88287272566192
C        -1.70615693187126    6.68620838574690   -0.57910663092152
H        -0.71430714162367    6.24061598137838   -0.60361143317013
H        -1.59907185840056    7.74746590056079   -0.37524725415984
H        -2.18976179388776    6.55863576602040   -1.54359101637627

