73
CSD_code = ETOFAU | q = 0 | S = 0 | Stoichiometry = C36H24CoF3N6O3 | MND = 6
Co        5.24626455123489    2.51031736358515    3.15935685490635
O         6.67313062377844    2.72332440727420   -0.54811599196253
O         5.58786222292561    1.62868581933394    7.04218730631913
O         2.69680451840631    5.11322628616071    1.64824874861764
F         0.95811300769652    0.56095026933103   -1.68840010939438
F         3.77626205833038    7.39438811674568    7.77096890308423
F         7.92050955774199    8.44155506119371    1.39795148692038
N         7.03838047973088    3.09969804364271    2.94753350741430
N         5.34644275726188    2.16204052186549    1.24628502682339
N         5.95321689057565    0.77866426585974    3.63343736023994
N         5.17602842246264    2.77589930982660    5.08894773146797
N         3.42054901021015    2.03365896456233    3.21504002356048
N         4.57807497628975    4.23679883348542    2.64606010747962
C         7.89618868206448    3.51084745215334    3.87835676056689
H         7.59818386424890    3.38333264783619    4.90873924033164
C         9.11704626397275    4.08176656933618    3.56722369868429
H         9.77210771587644    4.40430970471602    4.36057921796515
C         9.47254334553268    4.24015926446889    2.23527118909193
H        10.40921097864358    4.70164363141185    1.96348564790221
C         8.59667418605946    3.78495229321711    1.26837679539697
H         8.79939712098949    3.85290383867035    0.21082993890333
C         7.39348045552746    3.21837137398953    1.66373316362977
C         6.41970054622150    2.69677926115148    0.64748966527000
C         4.27273114635858    1.73692305607576    0.45290036816969
C         3.66936191583387    0.49968344212807    0.69328821562162
H         4.06760702692457   -0.15410234916480    1.45507160403617
C         2.55972196506290    0.10121423060526   -0.02499990084162
H         2.08626892647474   -0.85031904695955    0.16091376382217
C         2.05762319945357    0.94180642331936   -1.00132853854693
C         2.65127902354415    2.15743008388354   -1.28681142904448
H         2.24349982883800    2.78684343760138   -2.06141748634261
C         3.75696895326923    2.54893851629071   -0.56007896737933
H         4.23157610707546    3.49146872162918   -0.77606077750405
C         6.42444842980756   -0.17596003756434    2.83202662033939
H         6.38951659964896    0.01724697741953    1.76925035189876
C         6.94425130034647   -1.36391247151803    3.31522498525514
H         7.30735932138747   -2.10641930885967    2.62271501770087
C         6.98980679980140   -1.57830484087018    4.68639320013600
H         7.38370758447431   -2.49859185536398    5.08951362751048
C         6.52992571736078   -0.57567253875931    5.51926686540905
H         6.54611085003826   -0.64941825495000    6.59576545893069
C         6.02498510683637    0.58845748288297    4.95478798129269
C         5.56843215273748    1.72575224726291    5.82158269762954
C         4.80291047899287    3.93828077482238    5.78439490308687
C         5.67414900552710    4.51044603527360    6.71560612607490
H         6.61973491895585    4.03502358894712    6.92711081313930
C         5.33163455131632    5.66647528589942    7.38862407045955
H         5.99891834895036    6.11067006861399    8.11035199108199
C         4.10970401006233    6.25701164898410    7.12430710668152
C         3.21868803396322    5.70539224645554    6.22227210176901
H         2.26689470161484    6.18074069652170    6.04656699375797
C         3.56531786435721    4.54210544194976    5.56372238459744
H         2.86690724316234    4.09861663609486    4.87322894108597
C         2.84962509931583    0.92332151630000    3.67687948895712
H         3.48035285094958    0.22260969607067    4.20695641738170
C         1.50348214413547    0.65219410969713    3.51024699294627
H         1.09141485002267   -0.26261936520105    3.90536514634620
C         0.70512175099917    1.56289492626691    2.83195765845190
H        -0.34341867307350    1.36649297595161    2.67072533352543
C         1.28758881763946    2.73332071838794    2.38523529372703
H         0.73853878426430    3.50803993590170    1.87295237722969
C         2.64272779664479    2.93495856979884    2.60463236673129
C         3.31040654908933    4.22005209895525    2.21192207015170
C         5.37922095414160    5.34274982176832    2.32946745066310
C         6.13750145558241    5.96214079718069    3.32487353433856
H         6.04996726009386    5.62158433076124    4.34417536464566
C         6.98640722928950    7.00636160423723    3.01686404992448
H         7.57604177107057    7.48981487339604    3.77992763389039
C         7.06809323540752    7.43829118465414    1.70541445621747
C         6.30512332431756    6.86759447685191    0.70369229338254
H         6.37941400788500    7.23737872408619   -0.30654664552313
C         5.46155571152235    5.82163919434390    1.02021103985180
H         4.85502173274571    5.37268017212231    0.25137231411233

