55
CSD_code = ETOHOL | q = 0 | S = 0 | Stoichiometry = C17H27FeN7S3 | MND = 6
Fe       -1.45450162432460    3.60460920119554   11.14005742334607
S         2.04951241739893    6.43063193632626   11.35760365401892
S         2.01346376163081    1.73697671323015   13.37855425921025
S        -1.32249456394486    0.57679945190744    7.71914370366696
N        -1.64153101943725    4.70284169685868   13.08892494232828
H         1.72328510759100    6.34723744368798   12.72872698739125
N        -2.70474438857957    4.92984821001651   10.59509345276138
N        -3.04875321728758    2.31163511626952   12.09176071650769
N         1.37093595482084    6.23399362800061   14.40677145923955
N        -0.05897997911364    4.68346784443421   10.69266396996953
N        -0.18450457316708    2.36433039803397   11.83273491552363
N        -1.57961601824950    2.67054751969687    9.48937482258925
C        -1.96705510385432    6.05143002151287   12.61949517280820
H        -1.03875578058691    6.54513326124060   12.31985167541835
H        -2.44834174753271    6.65697655235760   13.40213050972828
C        -2.86792085802522    5.98981165233091   11.41097673232201
C        -3.78567950261404    6.99241701792584   11.15404387885688
H        -3.88638700580865    7.81613455243210   11.84505397770933
C        -4.55965439604627    6.93690239486189   10.00320280153322
H        -5.27779774545355    7.71038781207877    9.78310621220836
C        -4.36963881124444    5.86082941137000    9.14690477975337
H        -4.93109958325582    5.77464525399633    8.23084928132172
C        -3.44553200423281    4.89226032626337    9.48014865540932
H        -3.25504824623937    4.04329549668276    8.84149057975641
C        -2.78337081922451    4.10593973408774   13.79543894909081
H        -3.69784545905468    4.59121576335207   13.44701797726321
H        -2.70732762125564    4.27399278902978   14.87784730590134
C        -2.87102814331942    2.60412188548162   13.51919344001565
H        -1.93646445573317    2.13381757104706   13.83063132176549
H        -3.69286942884098    2.17194192374618   14.11147433199368
C        -4.41712091440474    2.58431001048449   11.66305003304428
H        -4.49788912916630    2.38104345364066   10.59763101181093
H        -4.68689318373182    3.62455866298995   11.83165075915669
H        -5.13188251054992    1.94649036582294   12.20051708871701
C        -2.77983938623606    0.89300073772494   11.84981574834621
H        -1.74998174229772    0.66793366350849   12.11247320945614
H        -2.90349099433917    0.68269281555096   10.79098862961901
H        -3.45860485341249    0.25715592808101   12.43095666995940
C        -0.38788222286749    4.60445481189960   13.85440242352768
H         0.41505077492761    4.46672243962502   13.13100738134520
H        -0.43564869073994    3.68470870630194   14.43588846084591
C         0.02096833616695    5.78303558162876   14.75714537834453
H        -0.65333884122605    6.63007966086880   14.62953917129372
H        -0.01592034124091    5.49061522763123   15.81718698618669
C         1.63881139375640    7.56483217602552   14.93361592127830
H         2.64188417638218    7.86850621777555   14.64035806600973
H         1.57017464475250    7.59877314489493   16.02780247555366
H         0.92638992791128    8.27451456394935   14.51407047694471
C         2.38111048573317    5.28819728631277   14.87215017164751
H         3.36232505761988    5.62462374974963   14.54328767428493
H         2.19850433520580    4.30069303334543   14.45311291264970
H         2.38484477137558    5.20946425231005   15.96555060974272
C         0.85626849335024    5.36788795690720   10.89919560412491
C         0.78240993047712    2.08598105344213   12.43993873580405
C        -1.39500466246657    1.75725192006934    8.77059651089923

