53
CSD_code = ETOHEB | q = 0 | S = 0 | Stoichiometry = C18H26FeN6S2 | MND = 6
Fe        7.92959471161376    6.04642988432959   13.99655409855773
N         6.43177034522688    5.42210820167861   12.69527501976079
N         8.12138636358610    7.44552015967705   12.70075713785128
N         6.41543377149823    6.96208547980672   14.90711387455868
N         7.60776606264175    4.15803944710630   14.91674342117538
C         6.95179774420903    5.80162959511758   11.38259415079900
H         6.17158548378927    5.79715517911632   10.60787050751580
H         7.72514143298186    5.08254694620606   11.10012702120484
C         7.61206077130857    7.14843054041541   11.49014020780924
C         7.71152081167519    8.00387463951523   10.40829652725651
H         7.28749198483885    7.71651175970909    9.45799984411176
C         8.36927109570628    9.21684087760653   10.55612552940759
H         8.46793530968842    9.89634629808970    9.72446579722903
C         8.89307375332287    9.52278778585472   11.80284815921481
H         9.41541675704805   10.44968599161443   11.97569742049801
C         8.74252011080315    8.61772847637117   12.83647274813915
H         9.13784354135173    8.82277581339811   13.81771629538746
C         5.19102411537440    6.14311438284825   13.00501213640456
H         4.51958382332437    5.47484949271724   13.54762580533086
H         4.68082572259605    6.45772589148887   12.08677121072188
C         5.46057047527076    7.36472537238146   13.89428578853929
H         5.88476631240527    8.18180699632065   13.30530542475191
H         4.50893822569228    7.70626919641811   14.31408314847535
C         6.21818869306254    7.25200708358611   16.13665895717509
C         7.09692877207264    6.68551513482676   17.19197317768604
H         7.69077896508777    5.87294785347062   16.78633094688096
H         6.49289509762492    6.34319149179583   18.03093604473422
H         7.77820340192175    7.45243186613856   17.55828585081697
C         5.10716097582126    8.13708788451749   16.63576577205207
H         5.04243157909670    9.05258859056188   16.05043711783976
H         5.29088323066558    8.40411657192022   17.67198586751120
H         4.14449674018278    7.62638826524370   16.58328079834827
C         6.28668091337166    3.98169806856252   12.88581066118228
H         7.13047145884781    3.48380608423110   12.40501811017298
H         5.35356616961184    3.59865431260390   12.44983420538711
C         6.34944542847764    3.66960588405316   14.38501174827880
H         5.55224439956708    4.20081858969169   14.91416689749126
H         6.20556449264572    2.59491151040615   14.52849451598441
C         8.47742461417100    3.35276258010437   15.38798349597963
C         9.75878003276067    3.87642921663448   15.92509120163397
H         9.83450095757677    4.94664736593192   15.75052725914843
H        10.58381393402551    3.37604869589623   15.42177496808684
H         9.83309818834194    3.65908217556813   16.99023223319151
C         8.32958911359499    1.85653914831547   15.45109013751010
H         7.40816796421578    1.55598007710343   15.94771447579137
H         9.16780584462693    1.42521353752934   15.98884237400457
H         8.33066753841551    1.44820050868841   14.44076111246175
N         9.27863030999605    5.11260582874907   13.00977620012098
C         9.71650637757515    4.09200834686277   12.63096649462194
S        10.24120603670282    2.70538302850951   12.05656356889902
N         9.23500662331687    6.82178734797173   15.15602268286252
C         9.72901097704157    7.67096517435243   15.79946822146008
S        10.36463244363029    8.79488936838564   16.72571362797870

