51
CSD_code = ETOHUR | q = 0 | S = 0 | Stoichiometry = C16H26FeN6S2 | MND = 6
C         1.82440325386583    4.01279546707002   14.06979289735086
H         2.40893333931166    3.27127548489313   14.62430135569391
H         1.45693986791586    4.72809136234112   14.81355598482252
C         2.71746956261676    4.71909304003235   13.08574274965977
C         3.82461412137353    5.43115361693266   13.50756081135473
H         4.05064472065834    5.48656731084996   14.56223625120736
C         4.63158100726025    6.06457565991840   12.57266059364321
H         5.49944529436862    6.62564903443698   12.87851100326965
C         4.27801321944272    5.94589474969099   11.23313582042428
H         4.86668468102186    6.41435837522259   10.46134597979012
C         3.15909444963521    5.21954537781478   10.89306788727537
H         2.84755992006954    5.10265703485837    9.86839138728011
C         0.73129026136132    1.91392427549993   13.53910550997187
H        -0.18503226915762    1.51475143262507   13.10530630226878
H         0.77519706156754    1.62638744863770   14.59940609750141
C         1.93384764005591    1.33681127783618   12.78423227610729
H         2.85980207819581    1.69421283398259   13.24144096876001
H         1.92220190321990    0.24269717377053   12.86934705349844
C         1.24967393310421    0.75850587151903   10.54186532973746
H         1.86268053976996   -0.14558303936832   10.44362436768246
H         1.07316345340753    1.19212697919115    9.56147952259174
H         0.28887598284920    0.49118070988148   10.96647425589153
C         3.27266344005750    1.91539362442187   10.85183176373605
H         3.84613164342793    2.60988279874914   11.46105618087598
H         3.19903037399487    2.31969224370266    9.84535398694901
H         3.80535228655699    0.95667000691651   10.81678400096486
C        -0.57359576854658    3.98633730355616   13.73090042026486
H        -0.72457970612486    4.00590191092547   14.81975391008921
H        -1.36701650434136    3.39321948102909   13.27753414990186
C        -0.62744732648054    5.40895932184287   13.16607737852159
H        -1.58996101723750    5.86666280256424   13.42960013120172
H         0.16210409939066    6.01223328669677   13.62052994393848
C         0.20800643365417    6.64712943938889   11.26657493325810
H        -0.43713169435843    7.51506915862086   11.45166906562625
H         0.39931240409458    6.57248011859327   10.19871561945968
H         1.15538427924928    6.80269516395944   11.77739287250886
C        -1.71169717711531    5.31507559565117   11.01504686011542
H        -2.28960060320631    6.23893649612256   11.13841268706630
H        -2.29052807619529    4.48087985366525   11.39467820748647
H        -1.52710110716189    5.14233476023070    9.95837864919221
C         0.61618777681923    4.41126875199288    8.50254307892230
C        -1.72334327017268    2.02559329485202   10.96912432539385
Fe        0.83582183853203    3.64470397753629   11.37250765979055
N         0.70488119420180    3.36901783260224   13.37292963269423
N         2.36720329665806    4.60418783183948   11.78829234288003
N         1.91977247603324    1.75640442004248   11.37399123495673
N        -0.42699773073771    5.40881746257807   11.70815148283475
N         0.99699275746390    3.89112195443401    9.48601975680932
N        -0.74633863504544    2.66911637958114   11.07000271582538
S         0.21912910675848    5.13235968806206    7.14684991656359
S        -3.04071881208402    1.14188356220642   10.95841268638778

