73
CSD_code = ETOHEC | q = 0 | S = 0 | Stoichiometry = C28H41ClP2Pd | MND = 4
Pd        0.43833355150355    3.23734885993511   15.34092992145457
P         1.69578308263804    4.68551809089186   14.20596539146292
C         0.01787620986461    2.40012057975331   13.51832108658445
C        -1.45868331816813    2.33267084168674   13.67149862041344
P        -0.76057303926906    1.73225762275871   16.54401439691194
C         0.43699305316654    3.23688557783826   12.33157716790725
C        -2.27790038191970    3.32024651618356   13.28492092252655
H        -1.90722320035652    4.21636096167730   12.81524753208474
H        -3.34202864007285    3.26416291298630   13.44437216619780
C         0.69941372099689    1.03564976011059   13.36796927977761
H         0.43225731328011    0.57497965332651   12.41273905414421
H         0.40066301995468    0.35144255762359   14.16081943979115
H         1.78430192344806    1.15116528151345   13.39045804924005
C         1.34238838961581    4.29074804281989   12.47348710272908
C         1.85200870172185    4.94897367527354   11.35949677915597
H         2.59045789608613    5.72831531748775   11.47882300814813
C         1.41815790715209    4.59618461953440   10.09617434635581
H         1.80693656191922    5.10738604527053    9.22744060182784
C         0.47566802500009    3.58928463321562    9.94717782760751
H         0.12334629344242    3.32610129309461    8.96020654992660
C         0.00000748433542    2.90765803614159   11.05116766964850
H        -0.72078383697763    2.11245691985141   10.92366488405217
Cl        0.85212107590184    4.38226336163734   17.34984340762269
C        -2.86582066572114    0.32089212917231   13.39144562703945
H        -3.08419316203017    0.67824428270904   12.39515898331606
C        -3.39644844094871   -0.87790061480872   13.83166727323174
H        -4.03494225441284   -1.45654656634021   13.18022523471702
C        -3.10364405426093   -1.33907662931420   15.10433807805659
H        -3.51117999481073   -2.27821097659186   15.44938601448757
C        -2.29433188343095   -0.58976869790942   15.93888806056517
H        -2.07984523975887   -0.95274527012171   16.93357894310799
C        -1.76551563205811    0.62149843996938   15.50953648369426
C        -2.04185248438266    1.08078429179710   14.21447427797536
C         3.54073473679150    4.64279696590908   14.35952769487053
H         3.99309864601091    5.20471458189809   13.53264925459021
C         1.15170344499313    6.43468392340345   14.49112368119226
H         1.40941562002579    6.62107206239118   15.54320157836957
C         3.91751228152003    3.16599851378104   14.25244435476163
H         3.67568292082164    2.77857402272913   13.26202383233476
H         3.35267689547490    2.59603093146278   15.00162053300581
H         4.98086227810463    3.01771987664462   14.43332656762189
C         3.96919453809109    5.22077498279408   15.70425551215396
H         5.02166430857519    5.01013408677905   15.88876560857782
H         3.38034054222318    4.77293960396104   16.50592415266904
H         3.82635350716210    6.29879423366277   15.73668757511748
C         1.79182441729543    7.49738917810029   13.60783068783252
H         1.45815143661822    7.39275089554246   12.57750294751359
H         2.87823857127727    7.43919024358733   13.63594832689790
H         1.49762545203753    8.48640078222003   13.95703798856952
C         0.27643502845652    0.64394152365037   17.64716843245531
H        -0.23040346115906   -0.31413287767460   17.81352984945338
C        -2.03603967342578    2.53625493346894   17.63002254864422
H        -1.45636478417025    3.07126035238807   18.39209990913595
C         1.58313361652608    0.40867203743870   16.88541849971459
H         1.42296951998131   -0.22569105215834   16.01420464932653
H         2.32344328859774   -0.07034919928171   17.52451833613485
H         1.98628341859678    1.37898932665754   16.55241836603635
C         0.56844695808869    1.31375314041167   18.98712682023731
H         0.96496331592343    2.31569120848020   18.82692519555072
H         1.31120757162832    0.73361878669233   19.53356467249947
H        -0.32335258567356    1.38557032245180   19.60522721053430
C        -3.01171652343510    1.57288723092335   18.29309513528998
H        -3.63138896599961    1.07772281322326   17.54716643256795
H        -3.66665520101156    2.12294977602842   18.96749881292472
H        -2.49160356017608    0.81225410665806   18.87197084970930
C        -2.76021188418701    3.56889594608712   16.76905996366297
H        -2.02465907211736    4.21005797775976   16.26546491077281
H        -3.40233564030641    4.19942636350269   17.38168849113471
H        -3.37209848757961    3.07951745797956   16.01164416311289
C        -0.37095376991703    6.42911040246720   14.36226658420357
H        -0.66486422369430    6.29581522413125   13.32054916024990
H        -0.79677610166742    7.36216889415682   14.72696203489324
H        -0.78938636173087    5.60059887050173   14.95402449394588

