75
CSD_code = ETOHAY | q = 0 | S = 0 | Stoichiometry = C28H43ClP2Pd | MND = 4
Pd        7.05948179244807   10.84867155133675   15.24550998773549
Cl        6.51503046555578   11.94971416410019   17.27147209639997
P         5.82535635695919   12.29597899667751   14.09947885723324
P         8.29241362962589    9.40459454690391   16.45094099117092
C         7.52075457097290    9.95531608844851   13.41755378199297
C         9.04667765016519    9.71484260052649   13.30595926313885
H         9.26889966217220    9.45525533846641   12.26384087236263
C         6.87664566266423   11.09589929289433    9.82582660080148
H         7.14662199888813   10.78016976188399    8.82814576179534
C         5.86330082033968    8.14718414347498   16.65696423600370
H         5.50143974257805    9.15077972501197   16.37844965932712
H         5.09755370710302    7.66529328460488   17.26397567633438
H         6.00443716791247    7.55251505696811   15.75684917385124
C         6.85099315990252    8.83889512894310   18.83459840652235
H         6.47461491878116    9.85762851782696   18.75211697299034
H         7.71807592662032    8.83250824028658   19.49015942944516
H         6.07825574738719    8.22795134601883   19.30040129840571
C        10.39980827287873    9.18576012697927   18.40410418955326
H        11.12054302388422    8.79073369260966   17.69027267845433
H         9.87778815027534    8.35421169303133   18.87211081530322
H        10.94989012594839    9.71486622118296   19.18177535245726
C        10.20006247275455   11.32203493905723   17.11131501531361
H        10.88622227495595   10.98172723136103   16.33694243841133
H        10.77742880150816   11.83525464839387   17.87916964177000
H         9.49204446055686   12.04056964994560   16.69053820132527
C         7.16740222360086    8.28092977191313   17.44806474880508
H         7.63012472858329    7.29159751250687   17.54748178101491
C         9.43726962928349   10.15202819377717   17.72544699161764
H         8.74865364576633   10.57059691045841   18.46860354554405
C         3.48410143352835   12.82464168781114   15.50671536692838
H         3.61406731678664   13.90405724174116   15.54878229352554
H         4.04076316653509   12.37893431454930   16.33187426280830
H         2.42648746536817   12.60369720190021   15.64478406490119
C         3.58328415714716   10.78575921870689   14.03855212936270
H         2.50706042986372   10.65553846929058   14.14237135543958
H         4.08088453049408   10.20390481718433   14.82247020036371
H         3.88795750993609   10.39785910307606   13.06593025178750
C         5.75758124553795   15.10530883936290   13.46069223632171
H         6.19449214320959   14.99964232373988   12.46979137163321
H         6.00291521650480   16.10002712795036   13.83131206211133
H         4.67437951216937   15.03448769592622   13.38190105515851
C         7.84781510414342   14.07864697471057   14.43422339267709
H         8.24924073439770   13.83393721855435   13.44989478819191
H         8.20711644434901   13.34025724799290   15.16210052966353
H         8.21859457660796   15.05894329592695   14.72887051302847
C         3.97342992440696   12.25551019260254   14.17885542562814
H         3.56036869574811   12.82843671191794   13.33889814385483
C         6.32073564368239   14.05750017013981   14.41179481227395
H         5.96133603410003   14.25428655871930   15.43128180430848
C        10.44026353264440    7.68136225826851   13.42473939026157
H        10.65758012026535    7.87454069280453   12.38277358475623
C        11.00443131522452    6.57250946097694   14.02436292863837
H        11.65473091694210    5.92281076071207   13.45731650212264
C        10.71640182448349    6.29373137892513   15.34827458326158
H        11.13217655437239    5.42059828713101   15.82953630437997
C         9.88959354833319    7.14709648440124   16.05104311833243
H         9.66087245004347    6.91594451684775   17.08013967175717
C         9.34386069993581    8.28734348729260   15.46405903468441
C         9.60097865844036    8.55709374853178   14.11181282245110
C         9.80520570951790   11.01640671479151   13.59353131453827
H        10.87768056925638   10.83727057166144   13.65056613473841
H         9.45906434210310   11.44630476420548   14.53914585158123
H         9.61530355137257   11.73163120325335   12.79421258371332
C         7.37131037926699   10.40818350492478   10.91726037310031
H         8.00059403223745    9.54921451196192   10.73227702066503
C         6.01766825938679   12.16860540891290   10.00121354186990
H         5.61482167772065   12.69198990413281    9.14648493591880
C         5.67292324676958   12.55151315131763   11.28147669633725
H         4.97965558882658   13.36581642825171   11.43002264603382
C         6.20555696427961   11.88362742327742   12.37923312123889
C         7.05799264333425   10.78496545111377   12.22389932208158
C         6.77842649760671    8.61439609286450   13.29832373033732
H         6.92059599964840    8.17814849624832   12.30576741880036
H         5.70649240129570    8.75037509485066   13.45121118557917
H         7.15891644204654    7.89793541500740   14.02515165750989

