69
CSD_code = ETOJUU | q = 0 | S = 0 | Stoichiometry = C25H39BrNiP2Si | MND = 4
Ni        5.34561124695647    3.12750862228423    3.75339476214982
P         7.04250441073263    1.76571419314181    3.63959427432300
P         4.01508737840551    4.85528867490259    3.86758059082187
Si        6.31383295083049    3.97426378217196    5.52473616337007
Br        4.17933175647143    2.04941420288581    2.12313785983854
C         5.65301366651191    3.52324603976379    7.29261656362003
H         6.12238200562818    4.19873311563012    8.00138433764005
H         5.90266457978287    2.50850917600875    7.58294018792693
H         4.57877748169612    3.64677427998251    7.37643356551328
C         8.11674539609703    3.34690650515973    5.58545693824936
C         8.39988874668721    2.25512559758968    4.76519258705081
C         9.64580538841543    1.64403508374910    4.83788858282756
H         9.88838460572513    0.79404507368906    4.21677362621060
C        10.59908692474143    2.11859951902498    5.72148865232710
H        11.56624600258842    1.63933823325118    5.77379803974783
C        10.31626399736817    3.20086064445923    6.53874275402326
H        11.06378554238965    3.56765892683408    7.22745741076598
C         9.07309264785812    3.80482312353878    6.47353520384071
H         8.84673072691122    4.63893790712563    7.12104594221758
C         5.94316163053870    5.84976140671413    5.51305972280448
C         4.73316298823192    6.17698872621827    4.90024779156093
C         4.19170444950514    7.44515644063978    5.06554249856815
H         3.22751195372205    7.69568571364916    4.64776645330154
C         4.88494564199078    8.39975460787527    5.78955038640217
H         4.46624687138182    9.38846847972951    5.91255906608938
C         6.11360461738736    8.09283011569541    6.35169481328098
H         6.65692139332081    8.84634696375082    6.90383719661562
C         6.62867325316852    6.81373386735515    6.22965172927548
H         7.57029528409844    6.56647862881935    6.69739528850996
C         5.47293572914355    0.33088713629371    5.37047111340617
H         4.92736023277827   -0.58087736675013    5.60741797082051
H         4.73989314448378    1.10397816011921    5.09846871631974
H         6.00870324307149    0.65783985871273    6.26045705342968
C         6.44123652653587    0.10053591822241    4.21314875500921
H         5.86513184147914   -0.28357324392758    3.36075406496047
C         7.53611682465983   -0.88813996875306    4.58622021586051
H         7.08730847330765   -1.84185839667871    4.86115919443910
H         8.11058012184289   -0.52588932867869    5.43753853607193
H         8.21464826683136   -1.06347127806565    3.75399860282865
C         7.28035907821095    0.44841097946099    1.10762751709216
H         7.85027352275095    0.39096767569933    0.18118529705032
H         6.28001691043106    0.80172393061631    0.86903732550122
H         7.20583700772445   -0.55568397819938    1.51820640450297
C         7.98615039637216    1.39741719529303    2.06895004165518
H         8.93288687313376    0.94442829593315    2.38648861274034
C         8.28549672029908    2.73237287266068    1.39067727108915
H         9.00708988685951    2.60204019361723    0.58595146718066
H         8.69161412125633    3.45028060522435    2.10565045567070
H         7.37169949059532    3.13948961364238    0.96083297206593
C         2.11030451592405    4.33170954432172    5.75551190740472
H         1.07395580865160    4.32808729707147    6.08928539168436
H         2.69457080725769    4.94079147347440    6.44608008046081
H         2.48319707871712    3.30745505085203    5.79066209181529
C         2.21736653461884    4.87488967199272    4.33344745656983
H         1.88887404681989    5.92152502467849    4.32076105908925
C         1.36867567234689    4.05777360711357    3.36672517787836
H         0.32974870391461    4.05965531771598    3.69349941812635
H         1.71282115138251    3.02668539921110    3.32760523923822
H         1.41114659870217    4.46411372634280    2.35881057365597
C         3.43494243857724    6.91789423992523    1.91817233328907
H         3.48277899862763    7.16341666807349    0.85784452467460
H         3.95100944487947    7.70332845738905    2.46654775357099
H         2.38735639559293    6.90543420517048    2.21131950210312
C         4.09879336375515    5.56772690786796    2.14415584874025
H         3.61283875533501    4.81487071914498    1.50872845935425
C         5.58538448788193    5.61179190060502    1.79268587359203
H         5.73369318317153    5.81915316646446    0.73435937319128
H         6.04756132191830    4.64002358508484    2.02221072293602
H         6.09937874100925    6.37620751141975    2.37604263607148

