90
CSD_code = ETOKAB | q = 0 | S = 0 | Stoichiometry = C34H51NNiP2Si | MND = 4
Ni        3.27877447714853    3.48353489267307   13.28816453445565
Si        1.08410865903768    3.43345644849500   13.10019067153275
P         3.34163582753062    2.72240441281903   11.22325123974429
P         2.95872968160825    3.32753015035509   15.48069846703752
N         5.25432541775672    3.32167051235362   13.39417553423372
C         0.64750060992849    2.42380533590178   11.52015824542459
C         1.68275822232731    2.28261781311192   10.59714429448921
C         1.41996704940870    1.79335430591830    9.32292515648821
H         2.20140041549955    1.72971133374457    8.57990806089095
C         0.13734528648233    1.40024594786303    8.98424336804112
H        -0.06455533681571    1.01847345066579    7.99351679273924
C        -0.88566453131556    1.49642923201838    9.91313292312931
H        -1.88511699976800    1.18075526459093    9.64973764414244
C        -0.63012291556225    2.02359615042030   11.16665632625675
H        -1.44020442740616    2.13017013949882   11.87212973013938
C        -0.03778947536694    4.99089026924217   12.78437989430321
H        -0.98528281197288    4.65192284941984   12.38077675236424
H         0.40761050685583    5.66294115793814   12.05843864451754
H        -0.23753452038845    5.55138576754152   13.68894666064649
C         0.43220081958836    2.61324343721807   14.71694413140919
C        -0.85226120297299    2.12500710429967   14.88611588305552
H        -1.56146648270498    2.19711472897706   14.07615958794840
C        -1.23794433424586    1.54305199127366   16.08130062452882
H        -2.24110396372080    1.15944204954225   16.20043506710227
C        -0.33063472620114    1.44406612008729   17.12262020588686
H        -0.62212079861185    0.97813609411684   18.05318171000910
C         0.95019938010999    1.94818204699615   16.97743123674160
H         1.64169885983487    1.86105589035967   17.80261744114406
C         1.33372386716190    2.54487155819836   15.78223895622189
C         3.35116424873030    4.89254061105145    9.56527289745411
H         3.74433713425584    5.43369683418677    8.70616454702164
H         3.45719922295797    5.52251715302831   10.44637941262169
H         2.29017006154553    4.70300851149028    9.40212495580574
C         4.10912856809144    3.58411889950584    9.76917917758147
H         3.96484486204922    2.94452719690827    8.89019086525826
C         5.59754700733735    3.83053329168799    9.97639438410824
H         6.01402202221491    4.34898492567232    9.11371795250468
H         6.13791285159925    2.89448996237875   10.10312220512622
H         5.76709095636957    4.44464334894272   10.85759544248910
C         4.21259819104271    0.23619429435800   10.02270830750529
H         4.76087319189079   -0.68793048722279   10.20493257360589
H         4.72680325880997    0.77930619452314    9.23275693829729
H         3.21466151660473   -0.03008448617096    9.68194628394673
C         4.14989174191185    1.04202795614007   11.31257146879057
H         5.17269816382769    1.24270315280329   11.65167650378140
C         3.40174287932030    0.27873194178717   12.40397746195267
H         3.94609765885765   -0.61453973179353   12.70687687314615
H         2.41547569159495   -0.01964742484101   12.05010633730270
H         3.26471409355046    0.92330805763130   13.27956286716035
C         1.74519363615394    5.80797760261413   15.76751234689620
H         1.72985755716837    6.79567117063966   16.22658700531449
H         0.76209088318268    5.35600520042238   15.89329704560445
H         1.94055835505022    5.92478571078856   14.70399603842875
C         2.81066960559845    4.93574468360016   16.42182868196212
H         3.78871413331007    5.41619165447416   16.29292044775911
C         2.50809430583870    4.78978100451020   17.90930284587747
H         2.43259355605878    5.78022689626799   18.35703017491276
H         3.28644069549578    4.24756619248958   18.43918422455755
H         1.55729876323102    4.28188282181666   18.05894638741601
C         4.31257751174572    0.96307648771269   15.99381416236459
H         4.91004967563580    0.35161295485051   16.66907738458016
H         4.82357580571285    1.01293411538580   15.03600096473122
H         3.34785153928423    0.47599376690015   15.85036413526922
C         4.13110884759556    2.36516953678850   16.56525792283328
H         3.67213453457649    2.27601814696524   17.55617064177294
C         5.46833159051995    3.08951988233062   16.69248051154734
H         6.20866326436026    2.43015248730476   17.14385918942271
H         5.38410851829336    3.97641616809368   17.31626008915238
H         5.82684038067495    3.39626006649356   15.71267407345553
C         6.21603871248668    4.26698015875338   13.29505164311021
C         7.59270348875686    3.91960344350655   13.29493160173686
C         8.55717384973403    4.90285570776722   13.20218815390971
H         9.59973487897093    4.60969481126369   13.20539873293401
C         8.23657964244688    6.24926568256229   13.10292114352458
C         6.89142993370896    6.59051367470579   13.09852766067474
H         6.61014164495958    7.63343662354026   13.01955747614364
C         5.89320173613334    5.64108755091826   13.19165521668702
C         8.01138302337211    2.47641190591849   13.39408702796367
H         7.61977013726483    1.89132723203981   12.55773594543425
H         7.66042395394352    2.01988591189736   14.32268771510161
H         9.09604508533840    2.39988617101598   13.37402375695626
C         9.29963065839909    7.30239559022391   12.98188231418415
H         9.36275336993610    7.66956328548887   11.95551519859660
H        10.27298448086464    6.90236790282223   13.25848126485748
H         9.07739154579800    8.15294915964523   13.62566083441502
C         4.45777501011309    6.09676950294479   13.18639891177261
H         4.22738596990868    6.64505420520588   14.10137634315834
H         3.76370786985338    5.22275151416834   13.10831946462040
H         4.26572740241935    6.76484151358125   12.34544850872551
H         5.65351457036827    2.39177524383443   13.45620957158417

