89
CSD_code = ETOMAD | q = 0 | S = 0 | Stoichiometry = C25H52B9NSiZr | MND = 12
Zr       10.82590533208537    7.26785876818770   12.43159519509526
Si       11.76994723552958    9.09395813614644   15.61106980450600
N         8.34192266852286    7.05293509594488   12.91467330947178
C        10.47823670074555    5.17192776295845   13.83919423081606
C        11.85594530320583    5.77526094447529   14.19724124289112
H        11.89155428616779    6.41206346637563   15.08025814922895
C         9.29693636186995    5.57649193820043   14.72390113049977
H         8.97919170230377    4.73936094455747   15.35808184833275
H         9.57178603735618    6.39943592255547   15.39421845329489
C         8.07583934021552    5.97313115799874   13.89302524657800
H         7.75213506665555    5.08419564517787   13.34472510302568
H         7.24823299916889    6.26549874764944   14.55767043691976
C         7.36040579417058    6.90482352300316   11.83211650961169
H         6.33248616385688    6.93890629307925   12.22143910327807
H         7.50183633618865    5.94817493843426   11.32665696599934
H         7.47546792712987    7.70085183976251   11.10392020567595
C         8.12867298217632    8.36739581295831   13.55151344270823
H         7.14021913079490    8.38009596176973   14.04075053759066
H         8.10236587571259    9.12792800137682   12.76299092965739
C         9.20669378603308    8.77380790216007   14.55362810983698
C         8.58929258568481    9.52824277154171   15.71968076646944
H         9.35553361633959   10.09568067186987   16.24158461762771
H         7.85005391580936   10.24096776333705   15.33762744104837
C         7.90541903301331    8.60471369660479   16.73372681799555
H         7.08645592666582    8.05701970492012   16.26058324899189
H         8.62832460896734    7.87154082477022   17.09520268134257
C         7.34950930762921    9.38586907062650   17.92202725166285
H         6.61971560036544   10.11737638347457   17.56610356414964
H         8.16128424733500    9.93825413320109   18.40070290549067
C         6.69142601879645    8.46851225411065   18.94560310925294
H         6.30577840564557    9.04392861590902   19.78383280417033
H         7.41012501520909    7.74648078330280   19.32709351686434
H         5.86425253777113    7.92249872258757   18.49621706438537
C        10.50484543121623    8.51519784371371   14.31912718356611
C        11.47913696765228    8.40929152554514   17.39197780667699
H        10.67621536565622    8.92444457387508   17.90811076607677
H        12.37773084544217    8.52982190976262   17.99002144077147
H        11.23856441875508    7.34933781150087   17.38954729297090
C        11.89528054727258   11.01001449960852   15.81848609424604
H        10.94137287568687   11.51800775554478   15.71925220970678
H        12.56870321820600   11.44562147835641   15.08672913930958
H        12.29033766093753   11.25360884829843   16.80013460184222
C        13.58081221349121    8.57334043014600   15.24925713140026
H        14.25832815936841    9.28369568956625   15.71337175419579
H        13.81205289669314    8.54964958243426   14.19125200839382
H        13.81908290402613    7.59678188105507   15.65711858683883
C         9.72379022588962    9.14659480824635   10.66403046061173
C        10.52179180655664    9.88122601357806   11.57534297036947
C        11.85427155195429    9.40176907219807   11.48151563386336
C        11.89411776355497    8.38768559463198   10.48347543618872
C        10.55985563582303    8.18898632532715   10.02190740467131
C         8.41910287923196    9.64304634393810   10.08722176009675
H         8.62432243475883   10.52764871113495    9.47832490100238
H         7.68750299724486    9.94500685099541   10.83819918886965
H         7.96456666341753    8.90571864879412    9.42796519342111
C        10.12049348574145   11.13173870086405   12.30721499597200
H        10.62210402264781   11.99521317664231   11.86525414407560
H        10.39803365281530   11.08680431435284   13.35938621110152
H         9.04847573256981   11.30416183453552   12.24039335126503
C        13.06069736578225   10.10080241100521   12.04492039842824
H        13.33522044484448   10.94185007076270   11.40123535690359
H        13.91959747379382    9.43250382690368   12.09309614618126
H        12.85776461461683   10.49764933868157   13.03701556733937
C        13.16818160710150    7.92789964586174    9.82126065856063
H        13.71181992927188    8.80350546542111    9.45885918991156
H        12.95641625372799    7.29605764290567    8.96273246511096
H        13.82463100222034    7.37836869252291   10.49731180788237
C        10.13093746243791    7.31502191607975    8.87052837210866
H        10.09251299593701    7.89268161710547    7.94311888591010
H         9.13942797292192    6.89029563945348    9.04004891114268
H        10.82494166064307    6.48966621474682    8.72233230188889
B        12.79080362088227    6.00908651536465   12.85704413138503
H        13.61837882926054    6.87692740180511   12.85699254351731
B        11.87837318955365    5.34769715943567   11.51067268398830
H        12.03919752605792    5.57522367710624   10.35292108680184
B        10.36847101521908    4.89658924035979   12.20814992611428
H         9.30629866797958    4.85321065602109   11.65372202466889
B        11.62595601246136    4.12035849881957   14.65146858269043
H        11.42410576285073    3.90293251278526   15.79255716858092
B        13.16305968304718    4.66570198567273   13.99063673246912
H        14.08816686909096    4.75526850755957   14.71644748470277
B        13.15631202642710    4.34690959361583   12.26487720797981
H        14.15117445856869    4.09467791223298   11.68039031384625
B        11.58783628737264    3.61468641188134   11.86604669409667
H        11.43964100797295    2.84276350458630   10.98413215591514
B        10.63956357062787    3.51681551086419   13.33511181584719
H         9.74971173268105    2.77964363261091   13.58039059125079
B        12.38918249420898    3.18405925200202   13.40127637531213
H        12.82517425666503    2.10924312215619   13.60502900749401

