67
CSD_code = ETORAH | q = 0 | S = 0 | Stoichiometry = C28H29Cl2N5O2Ru | MND = 6
Ru        5.63118242475720    7.44213700982770    1.27472061724346
Cl        4.19522661653566    6.35775353401700    2.84713679035027
Cl        6.87301681962641    8.58098433674915   -0.41966513090268
C         7.16424064802894    7.00537415929290    2.23564377433293
O         8.10427933560003    6.73752581744619    2.82590835709482
N         5.53135618885721    5.83402492991941    0.10379907063781
N         4.06516278536058    7.88723606738089    0.29512567808276
N         5.21973750244251    9.19297012967582    2.12852545849216
C         6.33040318646336    4.76875488537707    0.04035693766536
H         7.17673528128426    4.74355517340069    0.71491848271587
C         6.08618886908846    3.73652979853004   -0.85255029997500
H         6.73311015739206    2.87320531597456   -0.90204400472221
N         5.05529550858126    3.75164062796685   -1.68626110432410
C         4.26094724790469    4.80199916029605   -1.63005027304266
H         3.42490942739720    4.80403490964743   -2.31463291346806
C         4.47065431717560    5.86015378452930   -0.74568662294681
C         3.61999680677842    7.04295732833670   -0.63828832956753
C         2.47678631788924    7.33610851476568   -1.37041334645454
H         2.12954220876083    6.66468163402971   -2.13809608806988
C         1.79093310125651    8.52888169297142   -1.11968274981369
C         2.28762438362904    9.38928615869807   -0.13550075238924
H         1.76842113286938   10.30508404412922    0.09366527545372
C         3.43698612027014    9.03516693060193    0.55934541456886
C         4.10736510366426    9.78501127214950    1.61874595115306
C         3.68784818069587   11.02004721966422    2.11282801703871
H         2.80624724430589   11.50715082560763    1.72157827240950
N         4.32781772310340   11.65962308044505    3.07140714248625
C         5.41099085754937   11.07243656214892    3.56148867405562
H         5.93145033073073   11.60023380368768    4.34687519812300
C         5.86116519869285    9.84577478786033    3.09798303264565
H         6.74752808474103    9.37821887717827    3.50746539394649
C         0.57918367854826    8.86531836099662   -1.86857146043468
C        -0.33761758484876    7.87381893005656   -2.22793158016166
H        -0.16784513180314    6.85122911167151   -1.92620355697009
C        -1.47857889995763    8.18959565893603   -2.92595663821649
H        -2.19518591037189    7.43014204276637   -3.19517239737896
C        -1.74188636484870    9.51046538012016   -3.30493850762222
O        -2.88535002888787    9.70802566543285   -3.99512757996583
C        -0.83008283600135   10.50391417738803   -2.95415208948344
H        -0.99618321284643   11.53200701593536   -3.23420995500048
C         0.30800288624166   10.17899169286927   -2.24128379950940
H         1.01337368657707   10.96076597869437   -2.00096103856258
C        -3.23230062688187   11.01627764796026   -4.40934169384920
H        -2.44678615722532   11.42947855718366   -5.05688957145470
H        -3.34738339983846   11.67125021615655   -3.53462336538078
C        -4.54725575606964   10.92391431669070   -5.17522874786183
H        -4.40655244169653   10.25520201384894   -6.02614142382662
H        -5.29955356044842   10.47731517213216   -4.52301148491615
C        -5.02092264191661   12.29193127054692   -5.65767550869657
H        -4.25077915187320   12.74075487166291   -6.28973145035574
H        -5.16653666469655   12.94391519518133   -4.79487917591945
C        -6.32175074506350   12.18288989888564   -6.45081807787208
H        -6.16904552238614   11.48046359797490   -7.27364478137020
H        -7.10319503130085   11.77192063572270   -5.80794872183020
C        -6.79347640121306   13.51780371985227   -7.02811105108329
H        -5.98212987111879   13.96921624479271   -7.60389951386822
H        -7.61789556120684   13.32498431871976   -7.71889181500579
C        -7.27140171277070   14.50543395164421   -5.96589457440699
H        -6.44313666548623   14.77231996102018   -5.30722384589752
H        -8.04355840632214   14.03115558112175   -5.35546887595852
C        -7.83661080416721   15.77984602985248   -6.58903089055349
H        -7.06613905781937   16.25378283558896   -7.20145195170269
H        -8.66862097506200   15.52116828729439   -7.24780302706796
C        -8.31835292450569   16.76374541256002   -5.53014543027378
H        -9.10136594047316   16.31605626966666   -4.92184487311343
H        -8.71683970392674   17.66245915558910   -5.99500373224872
H        -7.49888966975078   17.05109845125302   -4.87473373501567

