29
CSD_code = ETOVUF | q = 0 | S = 0 | Stoichiometry = C8H10N4NiO6 | MND = 6
Ni        3.30649408186391   -0.00027792330766    0.00007916376192
N         4.60897627880524    1.06752656424310    0.86002852793294
C         5.31841303183790    3.13821637708474    1.24453693501690
H         5.43451079420733    4.19677500024573    1.34165964564889
C         5.83155460029627    1.00469128745325    1.32139629433051
H         6.38541074779927    0.10078253125718    1.48296798184118
C         4.26416067779384    2.39436338336173    0.79736633196723
N         6.29801069638342    2.24491443088746    1.57241041099665
H         7.21340862276948    2.47555353463190    1.92531715964105
O         2.40220887856302    3.78414703760663    0.23557460425061
O         2.32024860442243    1.59835319764080   -0.17075956104935
O         1.87201098291564   -0.36713437660689    1.98871824831651
C         2.88628426134462    2.66928900022693    0.24391982149769
H         2.48984904198701   -0.30196840219343    2.72239080228540
H         1.41847145011331    0.47985419999762    1.90555718720730
N         2.00401185409028   -1.06850745334986   -0.85983594309185
C         1.29505837137666   -3.13957331629224   -1.24333830937564
H         1.17924755068053   -4.19820654577094   -1.33998321638345
C         0.78128367213366   -1.00623904799662   -1.32091016410249
H         0.22707634005896   -0.10258812638314   -1.48273113444206
C         2.34922158895016   -2.39523030307028   -0.79678857029449
N         0.31510703152055   -2.24669312019983   -1.57129865888536
H        -0.60032482930056   -2.47774623197247   -1.92384446533393
O         4.21166344442568   -3.78431913970170   -0.23495868274792
O         4.29303243913535   -1.59838271257935    0.17077603818520
O         4.73783136971166    0.37003827200482   -1.98995146783410
C         3.72731099737292   -2.66958456349957   -0.24356290473778
H         4.11790770109040    0.31015534216598   -2.72232847582500
H         5.18995971764973   -0.47820889588532   -1.91240759877611

