77
CSD_code = ETOXOB | q = 0 | S = 0 | Stoichiometry = C38H28CdN6O4 | MND = 7
Cd        3.61784736335803    0.90200915011015    2.50449669508929
N         2.82998277974512    3.78475847835199    2.62044992196634
N         4.06851350871093    2.37296033625218    0.59360668538166
N         2.47828792549406    1.32990656903041    4.65913329191076
N         1.34476879523742    1.27966641621661    2.20280732416127
N         7.27734917196869    0.00680015012050    5.56860821429295
H         6.76095421744570   -0.85671191039448    5.51615617153096
N         3.90145352800297   -3.26346491951836    0.11090062635600
H         4.57366206801019   -2.63661593874161   -0.30026640460823
O         5.10137719611844   -0.02674330300333    3.94052227205239
O         5.49751549978499    2.00558652667446    3.18078369094302
O         2.51840351149172   -1.19761335422061    2.69526659278972
O         3.91706154855184   -0.71272732300274    1.05357893722354
C         2.41726438193837    4.22719779344421    3.79405845673713
H         1.41823014601794    3.92449008190522    4.08277890315706
C         3.18281894799499    5.03627071119372    4.61957381837855
H         2.80577338486187    5.36224150095911    5.57687282253723
C         4.44664523881062    5.40458072831184    4.18455671681835
H         5.08387556054628    6.02102947891646    4.80255421408591
C         4.87916500214846    4.96815966280197    2.94613356703064
H         5.86492326051247    5.21621746795127    2.58645615076547
C         4.03701481350101    4.14731681601009    2.19631359247902
C         4.45815227901601    3.61219752684686    0.88957695132302
C         5.22360273354698    4.37411195218010    0.00680748669029
H         5.50121983010611    5.38555397390192    0.26065931536715
C         5.60546439094689    3.82111503319576   -1.20231384960120
H         6.20260692765894    4.38857671369568   -1.90160692478637
C         5.20669642994138    2.52698144793110   -1.49608886441501
H         5.48772845924357    2.05490855976124   -2.42459447391291
C         4.43563135357583    1.84739718136828   -0.56404154510305
H         4.10358487780344    0.83309288564421   -0.74398558277827
C         3.16104093602365    1.18422807858676    5.78028563387585
H         4.06545429661450    1.77488890054570    5.86339148480915
C         2.75836533672625    0.34437591846208    6.80887543744903
H         3.35531372873896    0.24522406702625    7.70205330752306
C         1.58536494133208   -0.37436731194178    6.64580022930037
H         1.25094185854660   -1.06344267479135    7.40785353104683
C         0.84609087285146   -0.19762302315976    5.48880953579153
H        -0.06259813489793   -0.75627822591861    5.33096364834649
C         1.32778124153088    0.67148062122351    4.51186305612495
C         0.60573898452696    0.91574777621879    3.24900826942988
C        -0.77993645947513    0.78662969629839    3.15107194736334
H        -1.37060241433321    0.52755667028978    4.01585430746006
C        -1.39057906149625    1.00885949828041    1.92920672912802
H        -2.46095927229301    0.90459441162239    1.82601510996549
C        -0.60566074969000    1.36720880530518    0.84504904603761
H        -1.04316839482391    1.54261934753476   -0.12523592422787
C         0.76192177770146    1.49867556350270    1.04007117827274
H         1.41920975180795    1.79585006186335    0.23341917842381
C         5.78391371715735    1.02368316743348    3.90254802589158
C         6.95905987440142    1.09581444710291    4.79831729558557
C         7.83463307425876    2.11644339495269    5.06649526348514
H         7.82250481835445    3.08762805112362    4.61419671775612
C         8.74315248495380    1.63569846741490    6.04424986107018
C         9.83882838978110    2.19278667270527    6.70799779174975
H        10.14336818639897    3.20797229745610    6.49979121399149
C        10.51439873733292    1.42379847515869    7.62621350024598
H        11.36486729558478    1.83597746230973    8.14983263591522
C        10.12574307923135    0.10767346572667    7.90156242922741
H        10.68547554610425   -0.46295132168275    8.62823480833654
C         9.05083658224877   -0.47136827145087    7.26457249242526
H         8.75255922719628   -1.48789439731051    7.47538742042142
C         8.35984832687614    0.29819510531232    6.33464167944988
C         3.18022007118848   -1.51696652809356    1.69274346795098
C         3.10261931783061   -2.89711737876599    1.16428938460021
C         2.32192190341734   -3.96154651241747    1.53438399997921
H         1.60093226973693   -3.96380223272620    2.32672152655542
C         2.65501149752863   -5.03956392960263    0.67451078984898
C         2.21254948343593   -6.35898507040528    0.55534000096395
H         1.44932797278770   -6.73943296863784    1.21825733413429
C         2.76928226346081   -7.15660762545482   -0.41694184015662
H         2.44084100708979   -8.18034416183664   -0.52489923162954
C         3.76026409376512   -6.67198782397948   -1.27807345538896
H         4.17110518272066   -7.33147004451754   -2.02870190196650
C         4.21783443721634   -5.37605367952078   -1.18776360011161
H         4.98284673608298   -5.00255393049454   -1.85295082234669
C         3.66106005262210   -4.56130370450183   -0.20796726800619

