61
CSD_code = ETOYUJ | q = 0 | S = 0 | Stoichiometry = C16H34B9NZr | MND = 12
Zr        2.08931165813825    5.80084626656615    3.57030787779728
N         0.15115179347719    5.23252307225639    2.34341998004283
C         1.84540033293102    7.66046250394945    1.79131344809590
C         1.85519270035412    8.34177180927404    3.17881176116543
H         0.88733130100664    8.61459236837152    3.61199663841320
C         0.48818394154958    7.45202217097801    1.13004391882786
H        -0.26468194946451    8.08404268392422    1.61579957707288
H         0.52758040502447    7.78028859830223    0.08512748403005
C        -0.01340765827121    6.00230628314390    1.09714843639398
H         0.51738507645158    5.45406865953482    0.30464121638160
H        -1.08170647037031    6.03149380009769    0.81238035257310
C        -0.72653017914646    4.06682832205656    2.22221092533856
H        -1.78086159264149    4.36908539975654    2.11603284570714
H        -0.64050674059795    3.43774290425942    3.10308386091523
H        -0.45644634005009    3.47841729856363    1.34107580511230
C        -0.13812519977825    6.04466655702224    3.59781489298377
H        -0.74249878083592    5.40847831955230    4.26581505040663
H        -0.81612073012821    6.87811652370674    3.33413003609987
C         2.16437800536171    3.24711330161463    4.02218063185370
C         1.35077713338323    3.75337210471704    5.06924998647507
C         2.14538066369475    4.65578943272827    5.82971624077671
C         3.46973737157196    4.63288520034216    5.32117735346716
C         3.47201015294047    3.78353152046616    4.18043712417576
C         1.85192118376087    2.15898767680324    3.02748600546455
H         2.59196839609165    1.36024579490920    3.10796011583039
H         1.88144241129349    2.53054926594174    1.99784055182671
H         0.87570901794043    1.71473641222943    3.20749265540126
C         0.05785930057252    3.18254399873604    5.59298094231829
H         0.24893155655811    2.71329242323187    6.56129790840560
H        -0.34296156208505    2.41120407506568    4.93815536225626
H        -0.71092013457446    3.93953705504285    5.75527736015734
C         1.67009186688493    5.38830869128939    7.05750024274470
H         1.42629316597608    4.68671355839807    7.85931901354129
H         0.76813193500252    5.97210261174939    6.84155942983969
H         2.44024440535357    6.06458786710310    7.42513054853098
C         4.66167540961737    5.22411329683661    6.02775625293797
H         4.66202255559429    4.90276438632226    7.07089136830291
H         4.66477398365832    6.31505423168510    6.00477619188634
H         5.58756993338117    4.87670299258013    5.57650179562623
C         4.64955947584279    3.32452585677243    3.36039252638326
H         4.75626072390323    2.23922283546291    3.43219765303805
H         5.57602123639495    3.77039129711718    3.71331837097651
H         4.53021890492642    3.58084191345120    2.30285303091496
B         3.12662211694393    7.85939188596952    4.10048306293779
H         2.96661828943831    7.86758131812552    5.30038801541162
B         4.11649498381678    6.80679948637225    3.06148026331990
H         4.93928510000059    6.02755414317227    3.41983229893689
B         3.13126239890939    6.63792457997017    1.61344342124197
H         3.00736240391689    5.66700471822221    0.89221505682490
B         2.27561490176161    9.35581709803547    1.83029287217481
H         1.45749358396157   10.11648485586917    1.45445952624935
B         3.13967011936827    9.49223093809725    3.35405467841830
H         2.95077783946945   10.44423030815771    4.02354052116624
B         4.58363311370653    8.50679351343033    3.24358528969866
H         5.57605502801252    8.79429043074601    3.81534859973587
B         4.58487248475676    7.72578763549881    1.62329421547827
H         5.57603216992792    7.45308864927269    1.04219763086017
B         3.14471077401619    8.23839551902268    0.78664697303829
H         2.95365365839493    8.29842188400372   -0.37672214689672
B         4.01279078145972    9.41130827720895    1.80591492356104
H         4.59560159145095   10.33092341692016    1.35744202735737

