47
CSD_code = ETOZAP | q = 0 | S = 0 | Stoichiometry = C14H18CdN4O10 | MND = 6
Cd       -0.67974114550493    3.88205268367941    3.14063946794015
O         4.98758881885461    1.58083208990942    0.92333113423556
O         4.26904018027441    3.48200065209535    0.01468289803839
O         2.16471289475358    4.93844026159536    0.34305721671697
H         3.47448093281638    4.12385509186582    0.05921804946648
O         0.39011147665100    5.02397709941352    1.67346421917519
N         2.77058573932866    1.30558197580791    2.49407416718862
H         3.47257967252729    0.58388350258668    2.58335793498772
N         0.97973397684539    2.52837277936650    2.72853055860536
C         1.79487011736964    3.14041940728211    1.81624174321145
C         2.92769083023126    2.37376196857810    1.65161772709703
C         1.59290481126336    1.43175132485291    3.13019338308645
C         1.07230430427803    0.47253639617006    4.14014908088633
H         1.66037972736784    0.57191074328851    5.05690626621393
H         0.04258892936848    0.75756352104343    4.37142762457343
C         1.13931219385723   -0.97464438814749    3.64957826510474
H         0.61736462622768   -1.08483468266952    2.70257913155622
H         0.67758853077118   -1.63478206293882    4.37858892429169
H         2.16944182718967   -1.29427222293545    3.51421588931175
C         4.16164298470768    2.45897754211671    0.81757099216019
C         1.42668705535373    4.47088998366198    1.21550800898858
O        -2.34559095318156    4.92970535085219    1.67739223730211
H        -2.65832597900130    5.62650449639391    2.26856122672971
H        -1.68393313804692    5.35305193320496    1.11100305200233
O        -6.34640223658306    1.58082686030501    5.35980357344511
O        -5.62735056049383    3.48180938449991    6.26843948205616
O        -3.52309239316460    4.93818921990325    5.93934188570764
H        -4.83279261433910    4.12364509921385    6.22363549420763
O        -1.74926905790404    5.02401634384551    4.60792780245024
N        -4.12991474519121    1.30547182956028    3.78837186259758
H        -4.83193087900022    0.58375963287826    3.69937510509383
N        -2.33914781577256    2.52826411576744    3.55321586584855
C        -3.15397253367886    3.14035880519380    4.46575015540619
C        -4.28671843495766    2.37368656818197    4.63083799225666
C        -2.95247069695907    1.43162555214834    3.15181369939219
C        -2.43224765433962    0.47229408522320    2.14176526967600
H        -3.02033828581426    0.57187492949452    1.22503517870853
H        -1.40245267612398    0.75699216695947    1.91044048002904
C        -2.49969459299232   -0.97486353726167    2.63233029308743
H        -1.97792325634585   -1.08521629921033    3.57941973370590
H        -2.03803546223892   -1.63510446889606    1.90338009987084
H        -3.52992919232918   -1.29424539283091    2.76748321316726
C        -5.52036052449314    2.45890947749235    5.46534133952621
C        -2.78556347609340    4.47080738140179    5.06638232471244
O         0.98635399897434    4.92955692567042    4.60407112087421
H         1.29922272425834    5.62642396278126    4.01305581135562
H         0.32471195245086    5.35288191052076    5.17049301840686

