73
CSD_code = ETPHCR | q = 0 | S = 0 | Stoichiometry = C21H45CrO3P3 | MND = 6
Cr       -0.61677977957310   -0.07597789690678   -1.65986037735470
P        -1.41073426268787   -0.24205559381084    0.57040328351552
P        -1.70857916953508   -2.07078981091243   -2.36948425779845
P        -2.27642821686310    1.51761838730214   -2.29996620226970
C         0.89314750028893   -0.94948291300996   -1.13705027471518
O         1.96067187528889   -1.32897057438515   -0.85992893811703
C         0.23614958147970   -0.04947606847768   -3.27114113684166
O         0.94988408606939   -0.04776906586192   -4.19326608819486
C         0.49612601419813    1.32321396110365   -1.31826139385844
O         1.35258169147029    2.10723627129641   -1.20471331587902
C        -0.96234358038139   -1.84721580613068    1.39631512501076
C        -1.32965463887980   -2.03490388857795    2.86381928983401
C        -3.24257896100828   -0.16196235373114    0.99683145956378
C        -3.70414838808646    0.62812246261284    2.21630193852022
C        -0.66911071732587    0.95394217151522    1.78138039666368
C         0.83301177656129    0.75799062325874    1.94534781534536
C        -3.32614205548578   -2.73606062879095   -1.69036844225981
C        -4.02384737193143   -3.87683445464733   -2.42244211854442
C        -1.97107834979976   -2.26063377979361   -4.19492947108131
C        -2.98957610219356   -1.28465454851982   -4.76089641287328
C        -0.66183575288972   -3.58352503507502   -2.10496625640030
C         0.57264154689731   -3.63666918506638   -2.99632860078088
C        -4.12885088978989    1.20845966716413   -2.49444008533472
C        -4.88604496109947    1.83067311952620   -3.66231441051613
C        -2.33343257933757    2.91009772980296   -1.06528511693582
C        -3.18743112377482    4.13227769040868   -1.38116647877644
C        -1.90393797779913    2.47484970584788   -3.84738956854313
C        -0.55502702912503    3.17925313898311   -3.81328654801599
H        -1.43768908602203   -2.63297034808931    0.79964556445749
H         0.11771634421817   -1.95343443968675    1.25836699416678
H        -3.72583500296427    0.25422236481134    0.10765878728443
H        -3.57981888685025   -1.20000662071138    1.07978670508965
H        -0.85911026552293    1.95572320712404    1.38570754087788
H        -1.16673219193719    0.86627282058350    2.75005893243635
H        -3.09833768299736   -3.04759985966239   -0.66520705450501
H        -4.00893889374819   -1.88395425331834   -1.61493636706556
H        -0.99643215469099   -2.05348140161864   -4.64466314823486
H        -2.24556013148932   -3.29576801728623   -4.41981413977812
H        -0.34576166065385   -3.55266510484182   -1.05805520938346
H        -1.26807669510556   -4.48272603326697   -2.25259322120680
H        -4.23743695509325    0.12170995457199   -2.55487600028398
H        -4.59351642387002    1.52409962877875   -1.55439118176185
H        -2.67638226531301    2.45690606007256   -0.12870729447381
H        -1.29176214584002    3.20808543703601   -0.91434123049768
H        -1.90784879268530    1.76048389851155   -4.67594138766634
H        -2.69993270520297    3.20321891076225   -4.01998806674133
H        -0.99976835743484   -3.01802520751842    3.19782232888200
H        -4.79210123623686    0.59564792955696    2.27465698280716
H         1.25681306687430    1.58854592927769    2.50770092781792
H        -4.88561990558380   -4.20574527397252   -1.84267877707001
H        -3.01094308179765   -1.34043319029333   -5.84840131728793
H         1.27072149533849   -4.38308487207556   -2.62156346572658
H        -5.92355330248325    1.49795032639748   -3.63205763008024
H        -3.13920682343962    4.83362030692371   -0.54871906883645
H        -0.38092117233344    3.68609884688830   -4.76150258161559
H        -2.40529921616980   -1.97619702635622    3.01368487788365
H        -0.84933074302218   -1.29175648772015    3.49462433738271
H        -3.40384735151404    1.67145005531696    2.14833695977202
H        -3.30991658860381    0.21462285916635    3.14072412958974
H         1.32549257447130    0.71832801305300    0.97680056573842
H         1.05795545649180   -0.16151251409299    2.48021575276088
H        -3.36702196828463   -4.73321120080725   -2.55375334042760
H        -4.37977014042498   -3.56337098754897   -3.39994631630518
H        -2.71141791258161   -0.27177050778190   -4.47155256149142
H        -3.99233524949227   -1.48957666495041   -4.39050352045398
H         1.07987935109721   -2.67383373078153   -3.00508374836687
H         0.31260751718445   -3.90124162417060   -4.01828793483702
H        -4.46439527873812    1.52344265105628   -4.61590222294225
H        -4.88544166344244    2.91637351578270   -3.61416396524720
H        -4.23072400111673    3.86282345630644   -1.52873570791465
H        -2.83116195128324    4.64802761706684   -2.26889671393765
H         0.24953197176780    2.46532504153903   -3.65834839401546
H        -0.51172205815209    3.92083321078228   -3.01929363214894

