25
CSD_code = ETUAUC | q = 1 | S = 0 | Stoichiometry = C6H12AuN4S2(1+) | MND = 2
C         3.41803356088003    2.47753015564879   -1.28307983204636
C         1.99955566752361    3.83441110983485   -2.50759318479312
C         2.20325526847691    4.43923731510400   -1.10326724775567
C         7.00989248914754    0.48511874113355    3.70945161750029
C         8.50082659342962   -0.84638838704540    4.87444704251266
C         8.28250212821178   -1.43266075113846    3.46449225682274
N         2.80428182692229    2.62838457176943   -2.45262016675207
N         3.10968162653699    3.49109191226734   -0.47513410698349
N         7.64112359735605    0.32247914621717    4.86805801870659
N         7.34776391079016   -0.49157434240742    2.86840092835131
S         4.42153613769449    1.16786028737907   -0.95634996244807
S         5.95709030830195    1.76650635792822    3.42850885420915
Au        5.18424115101566    1.47532744991770    1.23650187159462
H         2.35756814709618    4.49677628516058   -3.30008928936135
H         0.95351578091728    3.58769564744268   -2.70570834935977
H         1.26896406544450    4.50283667340855   -0.53966297501292
H         2.65755617998842    5.43234166171461   -1.14071119741422
H         9.54042051902979   -0.55507793226517    5.04558705282549
H         8.19868272645222   -1.53937085588200    5.66364920379367
H         7.84643908005582   -2.43441924020602    3.49477641527747
H         9.20672300940983   -1.47084965274089    2.88277392948968
H         2.89853385658320    1.98337234158146   -3.21803212668606
H         3.44749787946335    3.59191551205178    0.46741995523997
H         7.54099558641326    0.94696270610590    5.64958519130589
H         6.98821890286416   -0.58820671298257    1.93339610099655

