44
CSD_code = ETUKOU | q = 0 | S = 0 | Stoichiometry = C19H18Cl2N2NiO2 | MND = 4
C         1.59124501071721   -2.32262148842495   10.23964625790057
C         1.68323150658331   -3.72347926447628   10.47224371563047
H         1.94387757340406   -4.04055693508834   11.46967639513921
C         1.46563127480418   -4.63349483371161    9.47749709889314
H         1.54989480039567   -5.69136265704421    9.67407855668728
C         1.12568842798087   -4.19995769218754    8.18844027529792
C         1.00456900561595   -2.86553844285728    7.91169692313704
H         0.73650375986794   -2.53664188677579    6.91870805169457
C         1.23770167642228   -1.90800448703687    8.91597097666678
C         1.04031893680825   -0.53113688082913    8.63903766293745
H         0.57197133893383   -0.30260777082206    7.67833949668373
C         0.86834510923299    1.77805608862670    9.04975035301628
H         0.23712950173929    2.16241531076961    9.85946952923035
H         0.25501609623474    1.72311282936648    8.14086868455196
C         2.02171597490814    2.77530781336454    8.80614029658377
C         2.55589275952280    2.61061941077826    7.38200569907743
H         3.42874607124595    3.24081732805817    7.22793657590482
H         1.79826637769052    2.89638721711900    6.65599782567613
H         2.84178412916902    1.57711486628237    7.19809883453943
C         1.48604836759303    4.19459899761628    9.00460831381447
H         1.19914937939152    4.35354489312807   10.04196663039401
H         0.61343654691690    4.36290124297868    8.37772345271097
H         2.24315557850084    4.92793431792008    8.73675892130042
C         3.17584066981763    2.50935741087375    9.79715746166343
H         3.81487596842923    1.71812677246371    9.38806813293031
H         3.78116431359281    3.42111067204654    9.88353699038342
C         2.98429224390072    2.84625842811664   12.11762481213089
H         3.43505927607815    3.82260230759394   11.92262765821100
C         2.78531242286673    2.51998718807020   13.48357563805955
C         2.98172191346924    3.49859514726531   14.47510468856372
H         3.22059625935874    4.50977299824880   14.18097379679969
C         2.86002466588339    3.17436477798770   15.79880242219036
C         2.55889456690270    1.86150873690962   16.18718044962510
H         2.47452227287009    1.62736575108086   17.23736327737650
C         2.37809038735454    0.89114848210944   15.24337128696121
H         2.14721863716772   -0.12395112218042   15.52551999096508
C         2.46849341964708    1.17332931585191   13.85157231291528
Ni        2.03572116654460    0.32428342560076   11.17513352009252
N         1.31571803979784    0.45045973753109    9.43480024444923
N         2.72910223225469    2.07679786558763   11.11018871732578
O         1.79802982249228   -1.51392616557151   11.20538844786632
O         2.29351617453321    0.22953488114521   13.01001457373142
Cl        0.85059810031472   -5.37598503206531    6.94523795643772
Cl        3.08598824304465    4.38645044458017   17.01699709385290

