27
CSD_code = ETURHG | q = 0 | S = 0 | Stoichiometry = C6H12Cl2HgN4O2 | MND = 4
Cl       -6.21150866203988    1.09226075316293    1.66412438049825
C        -2.80874705156522    2.21265244395544   -1.10280066924538
C        -1.20325207615094    2.05994420080529   -2.76127406855495
C        -1.18262164573098    3.48366610420854   -2.16933986031732
Hg       -5.09794031086864    0.00007712737749   -0.00001770247429
H        -0.26656169455693    3.66689269165486   -1.59445996467490
H        -1.27394561236105    4.25517755912102   -2.93744290692132
H        -0.21777686459358    1.58919001173548   -2.74860030606016
H        -1.57872344358116    2.05824084202260   -3.79105238180957
H        -2.45133637268876    0.41994566237772   -2.04189716640160
H        -2.55850518876874    4.22329613525259   -0.67697734734318
N        -2.34677626976321    3.47357485729766   -1.31134478404335
N        -2.11276765728815    1.36557370462987   -1.87890757593934
O        -3.71520137684845    1.93109463193742   -0.31679640050040
Cl       -3.98473510582802   -1.09256505048588   -1.66422844550877
O        -6.48072089764236   -1.93100106916282    0.31687267172870
C        -7.38720389177560   -2.21259590580264    1.10283961009367
N        -7.84915784790004   -3.47353183284579    1.31136097662229
N        -8.08323715021098   -1.36554408866241    1.87893489923169
C        -9.01333993390626   -3.48366312637011    2.16932664786832
H        -7.63739593921489   -4.22324994407341    0.67700121780720
C        -8.99277344963703   -2.05994247411805    2.76126074760777
H        -7.74473163407222   -0.41990630506205    2.04193500893355
H        -9.92938716245553   -3.66692720050855    1.59443513288151
H        -8.92201759554298   -4.25516408626692    2.93744239734060
H        -9.97827383053109   -1.58924146831701    2.74854633045882
H        -8.61736133447720   -2.05825417386213    3.79105955872207

