43
CSD_code = ETUVIY | q = 0 | S = 0 | Stoichiometry = C18H18Br2N2O2Zn | MND = 4
Zn        8.89720597130556    1.05247877188524    4.50774094195060
Br        8.29540231445953    3.14760882027296    3.63125580147230
Br        9.89377237455150   -0.69127137154699    3.28825656774903
O        10.86443355198004    1.14264098729831    8.35986378607475
O         5.75756668061575   -0.07779638906321    7.23796182155465
N        10.16711951682912    1.24953078609505    6.25008161515863
N         7.11565426693732    0.40400836302443    5.54313715444089
C         8.00134027251903    3.07438896002577    7.27897919492481
H         8.33923946580670    3.38012187231258    6.30350125017247
C         6.85314695013120    3.63000697297652    7.81374768875568
H         6.28671387312215    4.34024416756473    7.23018502015191
C         6.43966293817280    3.28543451174576    9.09078625879877
H         5.53754695166350    3.71396456978378    9.50192029734952
C         7.19615291965446    2.40600493434252    9.85031719886233
H         6.88863687106203    2.15585925381072   10.85481104521536
C         8.34631437314683    1.84925746531884    9.32570133644783
H         8.94609214077940    1.16796404206596    9.90922207631021
C         8.73967570939445    2.15741525815146    8.02260717740888
C         9.93011118171742    1.51349524577860    7.48093632818173
C        11.92599545923263    0.52385574020768    7.63459080811550
H        12.02394091957941   -0.50736411890086    7.98401067192483
H        12.84893990827843    1.06950867316282    7.84218491509214
C        11.47640583094602    0.62093513608923    6.16718982873728
H        12.13448618768323    1.24643146017967    5.55829784636647
H        11.39383619036319   -0.35573350932958    5.68797837877698
C         7.86480620859103   -1.16767495020537    8.71938056008000
H         7.08411765010469   -0.64913029230416    9.25412339273981
C         8.80738252172042   -1.91824514674892    9.39469056585106
H         8.76763159667290   -1.98776064707049   10.47158153012747
C         9.80004272984561   -2.58471082788947    8.69239107972459
H        10.53773926092523   -3.16697034434298    9.22457895163554
C         9.83060133590210   -2.52222173730769    7.30845976947928
H        10.58090915823732   -3.06565197630599    6.75404198139369
C         8.89363516167893   -1.76906651212663    6.62440425514963
H         8.89798534984492   -1.75911458936083    5.54770177948169
C         7.92215801690595   -1.06324039184610    7.32906904548285
C         6.94567892701837   -0.22277090974096    6.64735025167422
C         4.96677250020185    0.78551255997345    6.42168422588302
H         4.71633906563808    1.67462641581455    7.00652396065725
H         4.05082867709791    0.25752034552182    6.14851816389393
C         5.87603579052033    1.09326147734301    5.22001470116506
H         5.48638115034045    0.69968251640170    4.27728430958892
H         6.06006207882865    2.16116440693109    5.09413646599773

