29
CSD_code = ETUVAQ | q = 0 | S = 0 | Stoichiometry = C8H14I2N2O2Zn | MND = 4
C        11.50290019132163    4.21335094315879    9.12590256483120
C        10.50657827472539    4.05152370534485    8.04391730577082
H        10.52035858811994    4.91518046964347    7.38056042912853
H         9.50400005728329    3.97375637716080    8.46016018817511
H        10.73855520137057    3.15524454961838    7.47605236140979
C        13.34678511397415    3.66706632967121   10.26042927440371
H        14.35375441934735    3.88983977298102    9.89995533447039
H        13.38072262510123    2.79441223811817   10.91643377108286
C        12.64673226548032    4.87985191234048   10.90388176372534
H        12.31785069539274    4.68040714016719   11.92576691851192
H        13.27075151530577    5.77709085989584   10.90996981970756
C        12.14490594393723    8.76692006186607   10.40893753678233
C        12.37437573662121    8.50079109039551    8.97167229139562
H        12.30491186347052    7.43725097916550    8.76173834725986
H        13.34797423279923    8.88622830490091    8.68114570264777
H        11.60973688279109    9.01223111036830    8.38590128575535
C        12.40914291562938    9.88944000735508   12.31953205082438
H        13.30370503661567    9.80947318450123   12.94116532551006
H        11.94393717286886   10.86498460526709   12.47788238770475
C        11.42979488642240    8.71427521991152   12.50614327637940
H        10.43100219983164    9.03984999132607   12.80529730357851
H        11.77957220489778    7.97805732976522   13.23363111087543
I         8.79254715817732    7.35287894322071    8.66838177542277
I         9.37771500118333    5.59781981939396   12.96533472693317
N        11.49012587146244    5.09581056083001   10.04951561216841
N        11.37534773766880    8.10913444777305   11.18444783827190
O        12.52271381555783    3.35604647841362    9.13763765153915
O        12.80166204708588    9.79349709887664   10.94895063538247
Zn       10.00324034554146    6.52018646855160   10.71265541035539

