43
CSD_code = ETUVOE | q = 0 | S = 0 | Stoichiometry = C18H18I2N2O2Zn | MND = 4
Zn        0.31475058820776    3.73564171805011    3.15749053049968
I         0.11305081613626    6.14444007818040    2.43499227127123
I        -0.75922704202533    1.78142389991239    1.97038333175169
O         4.51342475378442    2.84525023773309    4.02254524783174
O        -0.25471539357388    3.22555934399670    7.43330443067486
N         2.44363655242734    3.31573791680812    3.35543212689399
N        -0.28037891077036    3.58999942588476    5.23832721631901
C         1.57827711623533    0.97928882574830    5.05722748432311
H         0.94420209423736    1.11221506723194    4.19893794791946
C         1.21548077245780    0.08808106312467    6.04955146346072
H         0.27933569437370   -0.44466500343704    5.97111874025055
C         2.05629454635347   -0.13556125291297    7.12731852744125
H         1.76841293167046   -0.82950624729386    7.90287130395338
C         3.27693504055733    0.51774993559636    7.19886124489064
H         3.94286917026404    0.33018775886431    8.02761792229290
C         3.64591059642421    1.41047058445366    6.21177446331809
H         4.59263524175914    1.92535803683260    6.26154905042708
C         2.78710899758684    1.66397197204567    5.14135918602910
C         3.19848716066997    2.63339278193724    4.13336741489845
C         4.71712380254050    3.81519596372859    2.99840519273343
H         5.34510962849059    3.37188408966791    2.22204279412794
H         5.23120294927392    4.67534033588905    3.43472171536314
C         3.29484852248289    4.14355645307982    2.51535643481167
H         3.04436226864899    5.19710720063764    2.65009739542117
H         3.13166666759310    3.88367098049349    1.46585274166873
C         2.46347573997036    3.87145051065663    7.57877119676430
H         2.10180533589157    3.08269499421736    8.22007531319230
C         3.72186416426349    4.41066267351214    7.76310397007471
H         4.35062948795414    4.04205118744957    8.55925031707749
C         4.17590454715171    5.42180057454177    6.93073441530358
H         5.16268577205831    5.83638445383766    7.07339020342047
C         3.35515664436624    5.91454869914277    5.92941424784628
H         3.69048027239887    6.72626787445756    5.30102700398607
C         2.09486155019588    5.37984575059597    5.73771325838311
H         1.44176990197256    5.79730883860124    4.99126045779131
C         1.65129820825894    4.33656905154827    6.54516755909995
C         0.34508329566791    3.72032405598552    6.34765252336017
C        -1.50170081242055    2.66642541961648    7.02559387680192
H        -2.30080569671582    3.16142556174432    7.58107735882062
H        -1.49690567451412    1.60083995332500    7.26763763506138
C        -1.55235689998572    2.94081733582671    5.51273144082320
H        -1.64653145854485    2.02570710913594    4.92597612344497
H        -2.36661894377644    3.61348478955200    5.22971692017657

