55
CSD_code = ETUVUK | q = 0 | S = 0 | Stoichiometry = C22H26Br2N2O2Zn | MND = 4
Zn       -7.55125156911475    1.97720000808093    6.79435702622733
Br       -9.09096316374738    3.37842633978498    7.92269522919177
O        -6.01902183019272    5.06603536700559    4.20573566458882
N        -6.44285087905490    3.44740259377368    5.67251713063009
C        -7.52888889308204    3.65685594734600    2.27656937206172
H        -6.53876489939265    3.93230422921997    1.94761223027926
C        -8.50565663197565    3.32313666955716    1.35889205292888
H        -8.27844498995900    3.34026565460069    0.30378080073196
C        -9.77658731145195    2.98080521572289    1.79138395933939
H       -10.54194033647113    2.72803392468649    1.07264364890107
C       -10.07071546005185    2.98595510627671    3.14437928790513
H       -11.07156772415716    2.75822382114588    3.47953326321222
C        -9.09642955646314    3.30831264257711    4.07179705170853
H        -9.34980255353130    3.36142864952273    5.11700218237549
C        -7.81462597185167    3.63123657861088    3.64023790784365
C        -6.75486490217565    4.01706936394703    4.57187423671941
C        -5.09690299849693    5.32656321677473    5.25774561881388
H        -5.35062156335319    6.29111955786840    5.70779707897971
H        -4.09110998695404    5.37665249975170    4.83606247401687
C        -5.28051225095312    4.14368584499928    6.24275351102497
C        -5.57403124251611    4.61787086423778    7.66223039531342
H        -4.74679255195705    5.22569996897223    8.02069552039162
H        -5.68450768968328    3.76765653486498    8.33204850322137
H        -6.48698683472129    5.20941919596497    7.69463297744461
C        -4.05620353114722    3.22834027810920    6.21974171001287
H        -3.19251596826114    3.77648967734840    6.58801008291443
H        -3.85598923227710    2.88989825190862    5.20505280452910
H        -4.20469677440361    2.36079316048856    6.85524280353370
Br       -6.01154172815334    0.57597800307398    7.92270058086999
N        -8.65965296166879    0.50699757946953    5.67251900538659
C        -8.34763809572859   -0.06266964206080    4.57187665807586
O        -9.08347987708462   -1.11163646131513    4.20573840822073
C       -10.00559895434075   -1.37216469242964    5.25774812836616
H        -9.75188044045434   -2.33672111496514    5.70779955585667
H       -11.01139171572704   -1.42225408722438    4.83606451069270
C        -9.82199080491676   -0.18928678795022    6.24275564261394
C        -9.52847128505435   -0.66347175802605    7.66223246448233
H       -10.35570932499213   -1.27130131959981    8.02069839144602
H        -9.41799487144772    0.18674277428016    8.33205026217344
H        -8.61551517677474   -1.25501925934107    7.69463477033753
C       -11.04629985081615    0.72605830936670    6.21974474935922
H       -11.90998694916960    0.17790781255566    6.58801248592993
H       -11.24651428158415    1.06450059094912    5.20505598910053
H       -10.89780770349387    1.59360525352033    6.85524644377700
C        -7.28787559915820    0.32316326074101    3.64024183164287
C        -7.57361270872607    0.29755152867867    2.27657326981475
H        -8.56373803428927    0.02210961049629    1.94761469144198
C        -6.59684369455105    0.63127213048611    1.35889777248616
H        -6.82405582462281    0.61415074043642    0.30378648655708
C        -5.32591194703446    0.97359718127115    1.79139150596204
H        -4.56055775159211    1.22636852122879    1.07265246221839
C        -5.03178379128730    0.96843934501071    3.14438682513166
H        -4.03093019784301    1.19616324469007    3.47954192702929
C        -6.00607081951270    0.64608007039293    4.07180284027232
H        -5.75269831257877    0.59295800311518    5.11700781591447

