56
CSD_code = ETUXAT | q = 0 | S = 0 | Stoichiometry = C26H18Cl2N2O7Zn | MND = 5
Zn        4.41522797933346    2.99520996993018    8.42380132897633
Cl       -1.60577833535186    1.15532833445810   14.19981186363288
Cl        1.86523076361854   -0.08414220160163    0.93090194014477
N         5.33291049903089    4.33930475197710    9.76167246421130
N         3.32840887074084    4.76693163442430    8.03879294950565
O         2.97878500727479    2.42692763342975    9.56306431064315
O         4.33759725210813    1.71351819579942   11.15880944644625
O         3.36330533555267    1.01405968661773   13.43764834190796
H         4.02979445122373    1.18370513525803   12.72141286785367
O         4.16978683413890    2.44073692525309    6.62394570066828
O         4.41737290267727    0.29147987965702    7.11555299820427
O         3.58940079837792   -1.49013362547065    5.43932282906441
H         3.96080265937613   -1.10291241746993    6.27351226421709
O         5.85170594800906    1.56190028105884    8.94344171338970
H         5.48941197157427    1.35738564405334    9.83267218210841
H         5.51523632858184    0.84441620065683    8.35699193885756
C         6.31934675979561    4.10143990938085   10.59506426112996
H         6.94141191314777    3.24877206136357   10.36864784422558
C         6.56317088447187    4.89423119288556   11.72144075265369
H         7.38199672035961    4.64822053310007   12.37819972128549
C         5.74463599330798    5.96727566003085   11.97708595239833
H         5.89635335301980    6.59542621638147   12.84280089337776
C         4.68834386486885    6.24701608981602   11.09315045893515
C         3.78693197837669    7.33722510859497   11.26638785672993
H         3.92986546543974    7.98372452217030   12.11946722596872
C         2.77668518938487    7.55781393484107   10.39035514388642
H         2.09546336308870    8.38431499336377   10.52833900725518
C         2.57934837294831    6.70369568709589    9.26713004130630
C         1.54180295018311    6.87207201226862    8.33382559164179
H         0.84633376739880    7.69047551035319    8.45190879231450
C         1.42918544649267    5.98564798108325    7.28984330646950
H         0.64201520768230    6.08307673466402    6.55916866369575
C         2.34962430888653    4.93663484475721    7.18205491147184
H         2.29230012643617    4.21296245285904    6.38234163099896
C         3.45556221479785    5.61624834804064    9.06507329742030
C         4.52613550494097    5.38518260079316    9.98788014940571
C         3.19168903898043    1.97219988880412   10.72436601426058
C         2.00788167031239    1.76136630802830   11.59957122476977
C         2.16481792346823    1.28949811767467   12.91588189314879
C         1.03196627629524    1.10705639387052   13.71246313913434
H         1.15910926550492    0.74398796084013   14.71937647345850
C        -0.21799477912141    1.38611353881367   13.20093775862486
C        -0.38657233393022    1.84948425400248   11.90100243866689
H        -1.37437973573254    2.05575555858879   11.52208740246039
C         0.73045090683207    2.03134894852021   11.11537085967057
H         0.63916027155877    2.38399379758553   10.09941029026037
C         4.07958364666527    1.20681202580326    6.33719714974345
C         3.54131430179490    0.87079743552167    4.99117649629420
C         3.31959178315538   -0.46983159204145    4.62373716469495
C         2.79475736131831   -0.74995268105947    3.35888391875078
H         2.62461327170214   -1.77881013961746    3.08570628863601
C         2.51034609403678    0.28154580257802    2.48960771831127
C         2.73378331605981    1.60935673056400    2.83687675188065
H         2.50986842660012    2.39833367489267    2.13717037414470
C         3.24578411056300    1.88665362891251    4.08534064031194
H         3.44061653264329    2.90511792583118    4.38511536038719

