35
CSD_code = EVABAE | q = 1 | S = 0 | Stoichiometry = C7H20Cl2CoN4O(1+) | MND = 6
Co        1.03077375379673    7.97894023553251    6.45505955329214
Cl       -0.65950358853460    9.23699864335431    5.78823908721391
Cl        2.67654592121142    6.61852233959138    7.08031879568797
N        -0.25256200949407    6.79182571828907    7.36866089928302
H        -1.19393446030539    7.08660627681109    7.09347713525654
H        -0.16320737428920    5.79900390291934    7.15166638001443
N         1.16387204227148    8.92259734403117    8.16301354058536
H         2.05266902062070    8.56697577761212    8.53669871068276
N         2.34572348069149    9.14577723513166    5.58806292454665
H         3.21965709355686    8.75855109790959    5.96639312857356
N         0.94950200102103    7.02155947735381    4.72911210863843
H         0.10452664610306    7.33516958557933    4.24284623874099
H         0.91041523274370    6.00425041607462    4.79376687664511
O         3.61583632199904   10.10406326188253    7.90277830583923
H         4.44349412809058   10.56442587891323    7.73077685646209
C        -0.10104600549925    6.97837668481423    8.82051731150929
H         0.79408776034255    6.44305060343870    9.14555379602974
H        -0.96533789590618    6.59741850329744    9.37210982606755
C         0.07668705375639    8.47204105309988    9.04414334198353
H        -0.83502525811904    9.00184573590405    8.75363129766853
H         0.29784019327188    8.69436934108163   10.09235322777529
C         1.27961160600232   10.38174479555675    8.16878527532916
H         1.37484528949253   10.73248499105826    9.20235523532795
H         0.38353704628273   10.81861215253046    7.72501743340214
C         2.52026379453421   10.82953544819774    7.38956451599290
H         2.64647824779512   11.90837202585877    7.54720355179395
C         2.35549540023043   10.58026425699365    5.88104262180543
H         1.41830385591331   11.02279632538687    5.53888353199005
H         3.18491094814037   11.05594642341359    5.34321796968852
C         2.31894201037927    8.89779742303531    4.13911702795974
H         3.23696716676209    9.24991944217406    3.65821395727160
H         1.46818019865946    9.44234157534499    3.71977318649801
C         2.12661106364941    7.40319216065292    3.93342691479687
H         1.99625563541122    7.16666364778860    2.87344116780014
H         2.99248367941834    6.85836021938640    4.31697826784747

