49
CSD_code = EVACUZ | q = 0 | S = 0 | Stoichiometry = C21H22Cl2NNiOP | MND = 4
Ni        7.29826440182099    3.17519938652520    4.02730342843940
P         8.92546758150049    2.74753589235538    2.70996142357236
Cl        6.16967199193096    1.59788215054980    3.33404762154290
Cl        5.68450869653613    4.05072878841160    5.08086757416246
N         8.55878805432005    4.51893283207317    4.77742330084356
O         9.47016580779754    4.15665927313064    2.14475640369286
C         8.91262768700732    5.42201179748466    2.54749689828791
C         8.73413865968165    4.47297604355714    6.09800751968724
C         8.87083498907511    1.75889894207632    1.18949657618072
C         8.29307128896063    3.24895497847001    6.82982130581982
H         7.89221927792558    2.50352101218190    6.12593998966114
H         7.50075710395063    3.50504007341904    7.53166777475688
H         9.12661209628499    2.81743229202945    7.38269263616355
C        10.40391777644798    2.05110386615115    3.51835716740207
C         9.05743262238764    2.31791796521513   -0.06703944858635
H         9.26090928091615    3.37427310714024   -0.16084575589289
C         8.71631709006990    0.16415792196492   -1.06754258197447
H         8.65293689459982   -0.45630710329350   -1.94932098490787
C         9.72475560929264    6.64701619947141    6.06430253254550
H        10.15735308301344    7.49789605473723    6.56825610505706
C         9.01421530636875    5.55145586072810    4.06326110365529
C         9.76234747386921    6.45330655553242    1.80416081129801
H         9.74876298541791    6.20999035050300    0.74451640742420
H        10.79312637864018    6.42036024143520    2.14853097600900
H         9.36023534244533    7.45346798760699    1.93271195601018
C         9.32339028709704    5.53478514370570    6.77620262720022
H         9.44503902084276    5.48063106544332    7.84628956498824
C        10.22582133548655    1.06856076779664    4.48451285275928
H         9.22154812065894    0.74887280186090    4.73514083164085
C         8.98411130204967    1.51696940928469   -1.19279394615520
H         9.13043568950856    1.95123597464358   -2.17138176226198
C        12.59852703287913    0.94386645047795    4.79167792283061
H        13.45612782256277    0.51393181179232    5.28788074634850
C         8.59607213518810    0.40145585630679    1.31498617865301
H         8.42308487157182   -0.01774020456152    2.29517620583094
C        11.32253030248808    0.51290957755364    5.11751821295770
H        11.18432448657766   -0.25242087370510    5.86705813028950
C         8.52121194605231   -0.39251887358325    0.18694251766622
H         8.30252061446356   -1.44548729351419    0.28337929635866
C         9.58845249286458    6.64957431352846    4.68419806593553
H         9.92448056528473    7.49685428367720    4.11237346110416
C         7.45208700659194    5.53282867603788    2.10498595421960
H         7.38186450627430    5.40626499646733    1.02697187634643
H         7.04641288434510    6.50118536012946    2.38705002094446
H         6.83950777203884    4.75067046489086    2.58597226536523
C        11.68285040729715    2.48004499775092    3.19146012090295
H        11.81026338932577    3.24465442637378    2.43900481898456
C        12.77730321688666    1.92699505408524    3.83136184934951
H        13.77369531140579    2.26026334410336    3.57940144689172

