121
CSD_code = EVAFOY | q = 1 | S = 0 | Stoichiometry = C63H52CuN2OP2(1+) | MND = 4
C        -1.67181793572657    1.76259918479804  -40.79926149311171
C        -2.37585731672672    1.13206631297841  -39.64279638151336
C        -3.40301127257726    1.79518535126024  -38.98421356769607
C        -4.02763246176876    1.19474061291053  -37.89332826118429
C        -3.58754373213868   -0.07415683999322  -37.51618541893684
C        -2.57667801549933   -0.69206823919080  -38.23769731432428
C        -5.10205940400841    1.87032889258917  -37.15860842561509
C        -5.04746910049257    3.24356223238661  -36.92655278257225
C        -6.05689308161152    3.87576787738253  -36.22544033058700
C        -7.13975891273072    3.15022060297986  -35.75661926413323
C        -7.20612139629818    1.78587308380263  -35.98680360892016
C        -6.19280164729794    1.14842608200971  -36.67714412227458
C        -2.05429877581558   -2.02568547551929  -37.90248303335906
C        -2.65954334763144   -2.86805918734267  -36.98221365148031
C        -2.07415774902769   -4.09885400813806  -36.68379067253235
C        -0.87259464887208   -4.40869521290977  -37.31623455724520
C        -0.32696902560350   -3.52255958686928  -38.23498745070859
C         0.98699383697660   -3.80405139157269  -38.88756922712822
C        -2.69080628238581   -5.01883744041286  -35.72295419933219
C        -4.07586420269864   -5.16735455027203  -35.67573398902420
C        -4.65631922073009   -6.04004132829968  -34.77497854989480
C        -3.86524329559199   -6.76615574085807  -33.89970068532197
C        -2.48833542668403   -6.61851133727097  -33.93260454190197
C        -1.90307073638186   -5.75610329643232  -34.84039614208216
C         2.56564626590077   -0.72446956968985  -40.94660715319337
C         3.81668052971243   -0.82737360852603  -41.54928296872820
C         4.94862768491254   -0.45954625654640  -40.84534915114761
C         4.84140400899669    0.00848526479772  -39.54444137030845
C         3.59892400581394    0.10547488092513  -38.93940817723878
C         2.46334950841504   -0.26219123572349  -39.63829290760038
C         1.48381024896343   -2.57578548930010  -42.82066028738109
C         0.96449846953583   -2.75734491209569  -44.09826911805416
C         1.30134392671571   -3.87841807102018  -44.83400192034525
C         2.15202346030720   -4.83300904769145  -44.30340322288462
C         2.66507367345965   -4.66339383995159  -43.02820348575823
C         2.33038900381335   -3.54574119589106  -42.28749957368169
C         0.86812119685255    0.16736340209048  -43.04017482026760
C         1.85340887922408    1.06771693239406  -43.41091295136085
C         1.57063848111081    2.01673766995379  -44.37852801304328
C         0.31442916221301    2.08812044342429  -44.95390976374934
C        -0.70869878765941    1.22330821960878  -44.57796373981108
C        -0.39984140898922    0.26282161596191  -43.62495310558769
C        -2.09499100127158    1.30559611322640  -45.19616026069777
C        -2.60479107926507    2.75288448036113  -45.11457872142568
C        -2.00871481234551    0.85603892195578  -46.66442403229470
C        -3.05757136650711    0.38863984457830  -44.46073389623505
C        -4.42443088616074    0.38319225123405  -44.72354734215445
C        -5.29027244578984   -0.45624414067258  -44.04348304052110
C        -4.82351612050164   -1.31334664102453  -43.06082718120200
C        -3.46616614203728   -1.33935751474778  -42.78284212749555
C        -2.60413993027185   -0.50524283282143  -43.50226447784555
C        -3.92146854158478   -2.97677833008547  -40.50672541005391
C        -4.81300194482798   -2.05759113030131  -39.95375685269833
C        -5.78997077053890   -2.47771146444576  -39.07266641783291
C        -5.87110524393366   -3.81386030948108  -38.71317625921114
C        -4.96748208772992   -4.72610815818810  -39.23409612365393
C        -3.99205661770825   -4.31150761986281  -40.12282319984346
C        -2.04758264013757   -3.76559099189024  -42.51484824740628
C        -1.09435297146630   -4.59512966121583  -41.93000157289323
C        -0.63650376743223   -5.71336889914122  -42.59878102090274
C        -1.11364047662265   -5.99856049356021  -43.86795849030724
C        -2.04836211119553   -5.16626414966095  -44.46084980009748
C        -2.51981627306502   -4.05175226049678  -43.78978808173338
Cu       -0.75221973942667   -1.37841318875269  -40.34972205765290
P        -2.57515857925973   -2.32319137994985  -41.53789482976459
O        -1.29394282298548   -0.65706969513260  -43.16517719974436
P         1.00862824641780   -1.14946046095167  -41.78368239766255
N        -0.92686167795776   -2.37696415170609  -38.53747542876972
N        -1.98758362840004   -0.08264478976352  -39.27543469437727
H        -2.30066455001260    1.71173848055051  -41.68842130254316
H        -1.45963417129814    2.80995501323976  -40.59713493055764
H        -0.73958138158688    1.23518178715544  -40.99785761259024
H        -3.71567501273373    2.76946150268698  -39.32566195259039
H        -4.01791155038494   -0.54893893516484  -36.65084030879064
H        -4.19568502078947    3.81122030763850  -37.27109468847240
H        -5.99848677582738    4.93805941117302  -36.04301584182567
H        -7.92882657696660    3.64602486182371  -35.21263599978757
H        -8.04997147961603    1.21734528696148  -35.62591871125196
H        -6.25721728247054    0.08670329913823  -36.86672547236668
H        -3.57251097713500   -2.58214891964997  -36.48834163163047
H        -0.36973808649492   -5.34050530994774  -37.11083323249503
H         1.14995387735896   -3.09601649391713  -39.69947231960285
H         1.03065970656662   -4.82229951982294  -39.26810033893212
H         1.78767069545873   -3.68503427562739  -38.15751994578348
H        -4.69341179410900   -4.61637560523687  -36.36950911092895
H        -5.72973389001173   -6.15465135831085  -34.75420853038126
H        -4.32023130561295   -7.44366684956385  -33.19371240875357
H        -1.86839835250942   -7.17700823397043  -33.24782488691912
H        -0.83040523186753   -5.63039430558155  -34.84574084862955
H         3.90013804185329   -1.20296456315537  -42.55991346845168
H         5.91908260931827   -0.53786265916340  -41.31211202504433
H         5.72957540009026    0.29335136294170  -39.00134998426829
H         3.51734272702671    0.46440290402484  -37.92439506316965
H         1.48218314030745   -0.20385979836445  -39.17919557422178
H         0.30519576400762   -2.02017127033373  -44.52925865431914
H         0.90050442302697   -4.00459190666464  -45.82857440017916
H         2.41780021205515   -5.70378690560914  -44.88283698455755
H         3.33332290393474   -5.40180015704103  -42.61040511319445
H         2.74736441401874   -3.41432162170166  -41.29862473189538
H         2.82864127414697    1.02997345717508  -42.95076239412091
H         2.33784525951839    2.70958758000259  -44.68714432833205
H         0.13084799879831    2.83481519679866  -45.70986381363486
H        -3.60369034212821    2.83470203862563  -45.53188167190040
H        -1.95731014094752    3.42230889791706  -45.67219305038236
H        -2.63472224188732    3.08658851663602  -44.07884623177158
H        -2.98450674291942    0.91874142891955  -47.13875031091375
H        -1.31447064741725    1.48586156756553  -47.21431941656362
H        -1.66168421269387   -0.17399743818309  -46.72604803782419
H        -4.82509257133736    1.03915215399480  -45.48008670264872
H        -6.34256178419718   -0.44063579651382  -44.28182734535589
H        -5.50332623476295   -1.95914960278659  -42.52553514269896
H        -4.74575371779851   -1.01371646617125  -40.23383949157309
H        -6.49370715118437   -1.76341330712886  -38.67035956138997
H        -6.64221012086443   -4.14361358047272  -38.03253649080672
H        -5.02493260378696   -5.76646681117830  -38.94972173164257
H        -3.29377557335370   -5.02792582574161  -40.53241769772232
H        -0.72218876544722   -4.34810567732980  -40.94459456207025
H         0.09569510088615   -6.35934801301389  -42.13758642196824
H        -0.75511679339257   -6.86908378564354  -44.39571627475765
H        -2.41766009803731   -5.38921120852370  -45.45088878354549
H        -3.25443009272365   -3.40949400167241  -44.25466589861485

