56
CSD_code = EVAGEN | q = 0 | S = 0 | Stoichiometry = C20H31ClO2PRh | MND = 4
C        -0.76307230118966    2.99662116508308    7.68745820554495
C        -1.67167014227846    0.48952630864547    7.31409247847367
C         2.47594467060033    2.39983467078408    5.15040789359005
C         2.65038903881825    2.28522412491082    6.66897411094574
H         3.63500120486113    1.88318021097036    6.90508118896835
H         1.89281593516048    1.59876910513819    7.07813344895646
H         2.55154373722947    3.24682563356894    7.16495711344760
C         3.54208606316977    3.32018925851968    4.56062403825403
H         4.52169476522461    2.86859389084446    4.71645630129647
H         3.55393643783906    4.29683628624592    5.03523148632327
H         3.40689696558085    3.44574628071398    3.48853333558649
C         2.67746814421937    1.00062654230390    4.55730529250661
H         2.76527273229779    1.03075798522352    3.47419908971629
H         1.85870927786980    0.33616280200366    4.82724384200423
H         3.59867038058323    0.57264407755385    4.95105198911183
C         0.49099671437985    4.81137279913862    4.94102482228361
C        -1.01757918048357    5.07809989450391    5.02595316743992
H        -1.45941804646186    4.54185159752567    5.86829729892277
H        -1.53548655708692    4.76594574599026    4.12392416774476
H        -1.20033114742405    6.14255184220335    5.16812073832390
C         1.06185555596698    5.55587327490767    3.73544965122316
H         0.92862044105579    6.62704337636746    3.88622803921830
H         0.54737090577067    5.28740976563749    2.81938681091865
H         2.12335075766791    5.37011611405904    3.60717238615671
C         1.13189992157910    5.35965007251064    6.21666659284926
H         2.21666031479907    5.35794863519026    6.15926549451060
H         0.82537431537790    4.78473202136123    7.08657789887616
H         0.81273555790707    6.39014292285452    6.36969089516387
C         0.48403341702591    2.51159599317869    3.05563483374895
H         1.29736153136470    2.99043421354260    2.50543411494662
H         0.62478322012376    1.42939716059970    3.00466620770324
C        -0.87194926255564    2.82008570160635    2.40668645362468
H        -1.65831995921363    2.39386247447095    3.03264082036754
H        -1.03584715111530    3.89533972332042    2.34114862644128
C        -0.93194058998807    2.23807690478337    1.01318080288857
C        -1.53763257601445    0.99704179067346    0.78637952743381
C        -1.54189466350344    0.46242961721578   -0.49565493528588
H        -2.00673967133028   -0.49814130664266   -0.66480144362779
C        -0.96546612719520    1.13820677830469   -1.55238364999909
H        -0.97151740204441    0.70921607359559   -2.54353761534386
C        -0.39349684336520    2.37541053069866   -1.33295248056740
H         0.04307734735980    2.91817503718492   -2.15940987935091
C        -0.37226760974340    2.93655437961605   -0.06289872316944
C         0.23849040462141    4.30063375327934    0.09590868142285
H         0.53496861587200    4.69170855120115   -0.87437350670231
H         1.12472093904268    4.27258009843672    0.72787094256742
H        -0.47398890939656    4.99969910193691    0.53375912688277
C        -2.21051833126452    0.23083588390778    1.88323070829824
H        -1.52581551950803    0.01670660000283    2.70045059011205
H        -2.59222698443650   -0.71341598147732    1.50339721729708
H        -3.05105395622620    0.79488430311984    2.28809855820959
Cl       -0.64864049444522   -0.03554868641310    4.99149550154645
O        -0.93303357451841    3.65369289754363    8.61495183620465
O        -2.28612814145583   -0.36959964206404    7.74064924663110
P         0.66591696759888    2.91838402541354    4.85266478769881
Rh       -0.63631113872480    1.72147761820060    6.36465587165074

