44
CSD_code = EVAGUD | q = 0 | S = 0 | Stoichiometry = C12H26Cl2P2RuSi | MND = 8
Ru        0.74706184209920   10.54311585413100   10.38183562676450
Cl       -0.16046045730447    7.02335119924223    9.60741628286737
Cl       -2.18775080993000    8.36948965837088   11.74682961014229
P        -0.73831384885473   12.14263434404937   11.00848623971230
P         1.28786771569347    9.78551974332297   12.46704312104652
Si       -0.94330798614205    8.91957136022143   10.11364267384749
C         1.14855937843577   11.06484114753723    8.24709473808917
H         0.48331758415801   11.30844805628791    7.42817075083684
C         1.84112495487163   12.01013578360003    9.05836244152245
H         1.74442259511643   13.08723069528119    8.99196193414071
C         2.79270697121322   11.32276861803529    9.83042124882053
H         3.56200505376347   11.78040814644091   10.43747626330905
C         2.71275923546527    9.93783921419546    9.48882288738099
H         3.42216119851420    9.17585779333808    9.78826525919193
C         1.72920423680471    9.79138084917071    8.48812621488667
H         1.52294437954311    8.88523829157054    7.93524358661824
C        -2.28875384967875    9.12688086776606    8.73901684768236
H        -2.87596437252427    8.21852377185842    8.64198158899644
H        -1.82844987885340    9.33148138152465    7.77752665795196
H        -2.96859772070512    9.94221444189737    8.96681427730185
C        -1.48947997616857   13.04311152197625    9.59294470649189
H        -2.17340701266372   13.81214260821638    9.95150583859843
H        -2.03491701337099   12.32616305297163    8.98119183479714
H        -0.71317768613446   13.50326842301971    8.98513447593069
C        -0.02969402971969   13.55645424941092   11.95146322592604
H        -0.77220377589915   14.34131875310143   12.09195168628890
H         0.82596229814040   13.95599279897485   11.40905387236061
H         0.31179976834943   13.19631545786154   12.92087917763166
C        -2.25998377113562   11.83687949536781   11.98222491435348
H        -2.78994244266610   12.77493850917187   12.14938505377746
H        -2.00715431013408   11.37929608772702   12.93476228509913
H        -2.89370117012798   11.14316363544838   11.43386606840487
C         0.18106598262501    9.93537842477755   13.91891140865398
H         0.63226883435950    9.43937753441327   14.77828511896989
H        -0.76676981481059    9.45751492580940   13.67448002266912
H         0.01389959065327   10.98633635369760   14.14920675424486
C         2.83191272296918   10.49828712690968   13.17093459043666
H         3.00484231123123   10.10286147773735   14.17169099149392
H         2.74215063711983   11.58290721185755   13.21819509729485
H         3.67314551489850   10.23920485577361   12.53021291172647
C         1.67377332880972    7.99786946702014   12.57604874250836
H         2.12387343000800    7.75908197195320   13.53965590138123
H         2.35091424731189    7.71667463009188   11.77091032166765
H         0.74638611473684    7.44113020882466   12.45306674817866

