67
CSD_code = EVAHEO | q = 0 | S = 0 | Stoichiometry = C27H36ClCuN2 | MND = 2
Cu       -2.67136950129159    3.18632596221378    5.32734846709189
Cl       -2.67136489439878    3.18631991175968    3.25916879676040
C        -1.86701042324144    5.46991574831346    7.59322511390401
N        -2.31848083334669    4.19704148419170    8.03971601524614
C        -2.80853096899060    6.45827810139218    7.30271889742983
C        -2.34384418461120    7.68839787090412    6.85708616880950
H        -3.04722922837055    8.46901080182492    6.61401954623118
C        -0.99072511799880    7.92139769687414    6.70667747070997
H        -0.64688617583885    8.88165409275034    6.35245853555698
C        -0.07519797862051    6.92676841551418    6.99274869510404
H         0.97668715768436    7.11804417931892    6.85252960729377
C        -0.49514121668279    5.68319054430656    7.44379793368329
C        -4.29070928740051    6.19418908320850    7.41871913533624
H        -4.44626023659722    5.22221561734047    7.89732000684025
C        -4.98695531241011    7.25148285544113    8.27781852743376
H        -6.02991030698146    6.98003429362918    8.42468392953124
H        -4.50919727830255    7.32804020031848    9.25268301681838
H        -4.95603336910361    8.22781686180262    7.80242554122169
C        -4.90499805002340    6.12936793768120    6.01828006232493
H        -4.79633986877548    7.08127226213339    5.50519824470265
H        -5.96331922728411    5.88767294259229    6.08165481231862
H        -4.40787700787129    5.36195449305862    5.42520996605380
C         0.49924296411740    4.57479324238658    7.69670054867959
H         0.00616281312124    3.77104658340083    8.25299898476485
C         1.69259107383109    5.04415593066363    8.53013934585764
H         2.30951159638167    5.74674241782275    7.97721583841934
H         2.31277557732647    4.19147559043489    8.79747073484269
H         1.35506538088744    5.52617903284051    9.44547634675377
C         0.95830994720911    4.00549483910229    6.35132875786763
H         1.46866299719811    4.76845422179461    5.76899019290919
H         0.10085207290177    3.65423870378159    5.77769656494213
H         1.63965018311007    3.17221132237100    6.50670614504452
C        -2.67137125206540    3.18633090514681    7.21876134168721
C        -2.44807797118030    3.82535315691080    9.35166566740300
H        -2.21558633520650    4.49118945121203   10.15669114265125
C        -2.89466867297105    2.54731831913358    9.35166822858634
N        -3.02426408779745    2.17562442029121    8.03972013267061
C        -3.47573244032884    0.90274789697281    7.59323522146331
C        -2.53420896449821   -0.08561214493050    7.30273593966881
C        -2.99889263115994   -1.31573466067052    6.85710361361869
H        -2.29550769912714   -2.09634645451423    6.61403145882989
C        -4.35201090862278   -1.54873844545207    6.70669219872972
H        -4.69584715626670   -2.50899680001829    6.35247575642115
C        -5.26754072704734   -0.55411125453817    6.99276093121152
H        -6.31942546389978   -0.74539135248813    6.85254498308381
C        -4.84760049106452    0.68946944968320    7.44380527700700
C        -5.84198674649897    1.79786606955789    7.69670216376525
H        -5.34890916569300    2.60161553078266    8.25299891511150
C        -7.03533674867324    1.32850531123622    8.53013924893228
H        -7.65225570445788    0.62591723643589    7.97721600078782
H        -7.65552224163294    2.18118625937012    8.79746632050930
H        -6.69781409083230    0.84648500840728    9.44547883629152
C        -6.30104978579031    2.36715785210592    6.35132624278504
H        -6.81140004715013    1.60419512035093    5.76898981888852
H        -5.44359070615825    2.71841243611934    5.77769491835344
H        -6.98239186973145    3.20044081573131    6.50669776115491
C        -1.05203392415917    0.17849661696317    7.41873232984503
H        -0.89649079490388    1.15047903641345    7.89732235746703
C        -0.35579874343189   -0.87884657481444    8.27779614723395
H         0.68714608689021   -0.60738108383525    8.42467956802250
H        -0.83354164879820   -0.95539062159120    9.25266733475016
H        -0.38670852214252   -1.85519505104898    7.80240763801486
C        -0.43774749112658    0.24329832063097    6.01829113514406
H        -0.54640975981719   -0.70861084093122    5.50521637060835
H         0.62057497884734    0.48498999171689    6.08166054880983
H        -0.93486854447982    1.01070790841292    5.42521653824331
H        -3.12716102465017    1.88148493007991   10.15669596176341

