83
CSD_code = EVAHOY | q = 0 | S = 0 | Stoichiometry = C30H50Cl2Ti | MND = 12
Ti       15.22936951585797    2.20575985358802    3.49232903273174
Cl       14.67050739847134    3.83511401955832    4.92413019809212
C        12.95049385262716    2.42527591218568    2.83099554354688
H        12.40720643358316    3.36051870740215    2.83082806317409
C        13.66616501554973    1.91676968683607    1.72685470734122
H        13.73376122839263    2.38054965153623    0.75079785866306
C        14.17610373439032    0.65466480861794    2.08329765730340
H        14.64804269539732   -0.04574982297288    1.40768294487212
C        13.73755854733031    0.37088495551268    3.39877206923176
H        13.84452288473628   -0.58832643574514    3.88659634621788
C        12.96440936233397    1.45738671378546    3.86992221097078
C        12.11339828080072    1.42136591353338    5.12629835849211
C        13.00249055586514    1.09869122983241    6.33666917078594
H        12.40331171400146    1.02499944947094    7.24007608007154
H        13.74823491267620    1.88206562849591    6.47119833808535
H        13.50543867083490    0.14348813637147    6.19849974458207
C        11.41199534761312    2.77838122194732    5.32797334128901
H        12.18468166731839    3.54279635008392    5.42740462838479
H        10.82913272364545    3.00744134826792    4.43446905730713
C        10.48107438823448    2.88027964691281    6.53531535893753
H         9.67793652615611    2.14465891173043    6.46155395162915
H        11.03230689381946    2.68899955743680    7.45663930626706
C         9.86174136118108    4.27426038058932    6.62407176835361
H         9.28980369819537    4.47610678169112    5.71524194734407
H        10.65951543387131    5.01738380401647    6.68397675633766
C         8.94864520922277    4.41235195751641    7.83616021358359
H         8.51610612148790    5.40919612413959    7.87915071400994
H         9.50596716473841    4.24121547254772    8.75471935325306
H         8.13735084397186    3.68853417252671    7.78908111832762
C        11.09306575466754    0.27006223311277    4.95524646643058
H        11.64527553701384   -0.66503454102072    4.83583949584636
H        10.50502677770148    0.18004943077693    5.86980476139390
C        10.15418728277393    0.42908746588160    3.76142911704003
H        10.74041014762594    0.63327798665220    2.86234493158813
H         9.48350292546115    1.27378557514734    3.92402137736071
C         9.31503239298984   -0.82722698019302    3.53764503470273
H         9.97744833150667   -1.67728453928710    3.35745642080440
H         8.73805183099098   -1.04359766845119    4.43998863225847
C         8.36630499569928   -0.66879643780259    2.35602261888541
H         7.78437451329010   -1.57522430418772    2.20588540513834
H         8.92496866772879   -0.46386549104883    1.44531243094090
H         7.67804306869670    0.15606592934703    2.52694701768160
Cl       15.78774410448173    3.83537947764585    2.06072775960158
C        17.50854627798316    2.42497877468997    4.15298906414087
H        18.05198010133750    3.36013469643343    4.15298410803963
C        16.79308463435483    1.91661729599847    5.25731864066864
C        16.28273685858304    0.65462646704094    4.90101831019707
H        16.72572779412448    2.38046894874633    6.23335520944421
H        15.81070821255303   -0.04562086344479    5.57675300507472
C        16.72100448161239    0.37069539594125    3.58547965402342
C        17.49419983076002    1.45706432896428    3.11409627334926
H        16.61378311603602   -0.58852926711692    3.09773747624259
C        18.34466235275761    1.42102729631859    1.85734373818755
C        17.45491332792307    1.09853110980124    0.64740409205990
H        18.05360487839505    1.02497244103649   -0.25633529908236
H        16.70910570983194    1.88194421547926    0.51339609671240
H        16.95206747387667    0.14329217977080    0.78568534060585
C        19.04606496580086    2.77800076766690    1.65536856383495
H        18.27337230701295    3.54246428002446    1.55638138457701
H        19.62942758834800    3.00700634799127    2.54856005541262
C        19.97628519292431    2.87987070792739    0.44748142456665
H        20.77962829226528    2.14444063936284    0.52092741843765
H        19.42457478527558    2.68829180218545   -0.47349455169243
C        20.59521451466855    4.27398741937200    0.35805640989546
H        21.16789392011531    4.47607836345447    1.26636358673866
H        19.79720788100971    5.01691156615465    0.29875180051424
C        21.50720151263871    4.41214915419000   -0.85486057536664
H        21.93945172731473    5.40909550855286   -0.89836592871669
H        20.94909784696436    4.24076251504150   -1.77289989430257
H        22.31871708615291    3.68853857452497   -0.80842375642830
C        19.36497596465108    0.26961477226966    2.02771404903491
H        18.81274827856605   -0.66541620089917    2.14756642100279
H        19.95233654641656    0.17950476935227    1.11272571078399
C        20.30477106014783    0.42855440741706    3.22081781830130
H        19.71924835358949    0.63258958823705    4.12039467712583
H        20.97527492973154    1.27331312123239    3.05780139576319
C        21.14419730422962   -0.82774179096491    3.44370430920375
H        20.48199978246716   -1.67782372224274    3.62457689133413
H        21.72021577986375   -1.04407324619582    2.54073490152780
C        22.09421157388216   -0.66932713020160    4.62429386078310
H        22.67630978374718   -1.57575729339873    4.77376999201341
H        21.53655206147936   -0.46441743051975    5.53562268953425
H        22.78228739761601    0.15553721586070    4.45262832743893

