41
CSD_code = EVAJOA | q = 1 | S = 0 | Stoichiometry = C15H17N3O5V(1+) | MND = 7
V        21.54235646639151    6.51826728544041   13.34086469917953
O        21.13252415039819    5.37757444664570   14.27888899547029
O        22.63901656527547    5.97119646194646   12.11551277025709
O        21.41187392666277    6.00448279852092   11.68728014270598
O        21.68278035933771    8.57872258761789   12.09047321126833
O        23.91255701265220    8.67356754706381   12.19172489754902
N        21.14062674707036    7.86807254273107   14.94307174433817
N        19.54571276154277    7.05013021426825   12.97191517236705
N        23.43271104575630    6.61730708836991   14.37181341413624
C        18.91879518738786    7.60455329834790   14.00743918748905
C        21.97358848851346    7.44222968023786   16.07596896741513
H        22.00311576174948    8.20839533100761   16.86335467685339
H        21.53641005109761    6.52724251608053   16.49523795293983
C        23.34801941569276    7.05546875517631   15.62619929549015
C        21.33652050233830    9.30360083804979   14.67679033399713
H        21.25737141254263    9.87381521466609   15.61348383821897
H        20.53740052629651    9.63507080456995   14.00407503148438
C        22.67172413292358    9.60574277531795   13.99858876685851
H        22.73437890498960   10.67879213923122   13.79292945321909
H        23.53933275962402    9.33676102839359   14.60253362114557
C        22.70090650236029    8.88680804939890   12.66623261072854
C        25.73354950384933    6.12467511191535   14.71818597708168
H        26.65419899261844    5.73141311984910   14.31948725679190
C        24.59577426620540    6.15376421502640   13.92780076744559
H        24.61346578318404    5.78129148188955   12.91213436345155
C        25.66033049721435    6.59862239138112   16.01901257836001
H        26.52675776893289    6.59231185044542   16.66174959782305
C        24.44344322178114    7.07095972628961   16.48191544371350
H        24.33550053948936    7.43465039652822   17.49178996392379
C        18.89823072730081    6.90050427646902   11.82548478469237
H        19.45105388604971    6.44239749186701   11.01597310600512
C        17.60437180261041    8.04461851267573   13.92689575016261
H        17.12789427923261    8.49110558045538   14.78568825740351
C        19.72391809165887    7.64648927108251   15.26967119314599
H        19.35021631766999    8.40225721373396   15.97413785206590
H        19.62905946688111    6.65209674963785   15.72398746062013
C        17.58036424884429    7.30137460994070   11.66323860017652
H        17.08607821786283    7.15221638235928   10.71716070041765
C        16.92040713529231    7.88772520441437   12.73133678476036
H        15.89625823067190    8.21452336930826   12.63961624989770
H        23.88290434204685    8.21520164164852   11.33015452894951

