32
CSD_code = EVAKER | q = -1 | S = 0 | Stoichiometry = C12H8N2O9V(1-) | MND = 7
V         4.98563846539022    9.42859845790113   -3.28855662125707
O         6.47428394469367    9.74212913310127   -3.06985644301630
O         4.97377421124756    8.06746466086948   -4.43001575471573
O         4.89232037268119    7.67265803147587   -3.17635565596112
O         4.47012489619273   11.33542365120811   -2.81369091283543
O         2.83415217756343    9.46349505988184   -3.46788391459107
O         1.28912823497950   10.10315567805939   -4.93624580626258
O         1.97138430057476   11.24349395483881   -7.07355677311858
H         1.42462461361567   10.82532973522965   -6.31166110107127
O         3.63812794557162   12.62525829682318   -1.20156386255189
O         3.26719659652225   11.62239281495923    1.11400304597697
H         3.28974624096820   12.27134798852270    0.33438918876274
N         4.81159493531031   10.33489316113764   -5.06423931843548
N         4.62162982340489    9.25077981751153   -1.23929505673724
C         5.81307904704518   10.77226430820380   -5.80570277689232
H         6.80405929430569   10.60851466099804   -5.39948320836600
C         5.58745833069869   11.40184844516551   -7.02296019095094
H         6.42229164840695   11.75347787603773   -7.61098036065747
C         4.29289123922327   11.57424828654933   -7.47597648037259
H         4.07596124699967   12.05679424193270   -8.41750538632877
C         3.23665840850569   11.10853290357178   -6.68759285896380
C         3.56341108818551   10.48555963046577   -5.46617993431200
C         2.46803962169027    9.96731649050281   -4.53933857350948
C         4.75484946156191    8.17857795433564   -0.47601610822026
H         5.15628428725488    7.29704314907663   -0.95804048234575
C         4.39174343641965    8.19103991872570    0.86571467660129
H         4.51287464136743    7.29862049819298    1.46165957933775
C         3.87723853209837    9.34177838582884    1.43341768960275
H         3.58171702299937    9.38623205668768    2.47110995808874
C         3.74346019047877   10.47673641401202    0.63050469724489
C         4.13894185764297   10.36443345480205   -0.71639298256633
C         4.06581388639961   11.54576088339092   -1.65270827157675

