47
CSD_code = EVAVAY | q = 0 | S = 0 | Stoichiometry = C16H20N4O2S4Zn | MND = 5
Zn        5.91052378810541    2.10934622935907    4.53298113333735
S         5.57055458315960    2.61400355790846    2.05756308754257
S         7.04657487036497    4.30412973480769    3.98123344144506
C         6.43211487779155    4.03008222911253    2.42761216342270
N         6.64478154553364    4.89203430422631    1.43381714833375
C         7.24131617441171    6.19946276250026    1.56221935831265
C         8.21330982746339    6.44699127932728    0.40550284519180
O         9.35662173952141    5.63786819498225    0.47902553389265
N         7.35949701659656    1.51653279062128    6.00789025223191
C         8.06266745123714    2.34410018938614    6.76169612060517
C         8.72192944711277    1.93562563349813    7.90863996574243
C         8.63687092154363    0.59977806938827    8.27159404399021
C         7.89926845905352   -0.26521893778816    7.48348147963895
C         7.25612875952575    0.22661779786080    6.34722339467868
C         6.44255656636834   -0.61067377539203    5.45647825633552
C         6.08751618427487   -1.92550391060091    5.75755980549993
C         5.31958582103297   -2.64194523521164    4.85762502310024
C         4.92594575023224   -2.03401813693658    3.67449873797820
C         5.30251799386621   -0.71997550972730    3.45860472901760
N         6.03247512965649   -0.03205145753724    4.32118411320625
S         4.01002742024794    2.05392666812986    5.94775158453550
C         3.26687335197477    3.61163488577846    5.77865741794160
S         2.46718222207614    4.28971894155789    7.05034109485844
N         3.34303826816945    4.19999904684908    4.57569630326501
C         2.81599633113835    5.50730223254556    4.28356415988078
C         3.79228854601885    6.31141572393267    3.42585302444287
O         3.95024750265108    5.77618800172321    2.13053732097353
H         6.13112657645853    4.71092543072443    0.58058547113131
H         7.77697288138699    6.23180041360449    2.51376629033834
H         6.45838798963669    6.96517245345160    1.56189791204481
H         7.68829915901536    6.28877266865510   -0.54997509375149
H         8.57124628153244    7.47780579595764    0.43910931296756
H         9.07966053850403    4.72360716173667    0.61429385891160
H         8.09830879895966    3.37207136570080    6.42775101692155
H         9.28347369562028    2.64290527940629    8.49681230101076
H         9.13854878673958    0.23591365022216    9.15565948621911
H         7.83303756690494   -1.30732479828215    7.74863968536807
H         6.38772405804148   -2.38058561829514    6.68669839141560
H         5.02960017963391   -3.65808660698692    5.07858472337908
H         4.33235029438928   -2.55955142520524    2.94435150041438
H         5.01310148313762   -0.18986086645178    2.56132584929827
H         3.77909141869896    3.70150650567083    3.80746120371063
H         2.64191422472629    6.01322505428979    5.23712689711816
H         1.85321622372600    5.41597767231376    3.75907688932582
H         3.44535572144623    7.35269756928086    3.36991959872361
H         4.78763353765495    6.29463793342037    3.87627037134211
H         3.07834003469537    5.67881905054089    1.72851279473929

