45
CSD_code = EVEGIX | q = 0 | S = 0 | Stoichiometry = C14H20N4PtS6 | MND = 4
Pt        8.83669129204649    0.00077092574882    9.93948566211079
S         7.90563507892189   -1.23401266003174    8.20104348477975
C         9.21385557678245   -2.26558947222922    7.87608293622660
N         9.28007123664536   -3.26114653837184    6.94259827285169
C        10.43648376610416   -2.24506185099786    8.54826521854060
S        10.83545830867943   -1.18515267929202    9.81265723784001
N        11.21468355387714   -3.22869417617697    8.00620320258449
C        10.51415870819578   -3.84784193178673    7.00739605747707
S        11.05097263848550   -5.09108438229408    6.06839441617508
C         8.24879746277304   -3.59228742152304    5.99116323328045
H         7.28546544132054   -3.49965740513976    6.49861901528251
H         8.40884957335463   -4.62920186977438    5.68706592339444
C         8.30436961143015   -2.66789683179859    4.78040244443684
H         7.51754017941434   -2.93369327637646    4.08116331625991
H         9.26455814775328   -2.76475637900556    4.27961448577022
H         8.16623992483929   -1.63379717293455    5.08657772093541
C        12.57964311802134   -3.51772918749508    8.36923431470238
H        12.78049538745983   -4.55127668787888    8.07767409869608
H        12.66496282970991   -3.41580325324472    9.45405219565856
C        13.54444530812110   -2.56918912688492    7.66710327859056
H        14.56374875092055   -2.80215586904963    7.95918402956567
H        13.32876077987562   -1.53893964073097    7.94005337963859
H        13.45638824986762   -2.67674071105249    6.58861224792112
S         9.76759032219103    1.23378098752886   11.67987786409462
C         8.45929511423566    2.26543589386994   12.00442646995925
N         8.39300409614151    3.26112422573937   12.93773424528806
C         7.23669263372022    2.24476433679614   11.33220394016724
S         6.83778757956066    1.18455317782047   10.06806778144855
N         6.45846000385195    3.22850403290790   11.87401287196182
C         7.15890051763220    3.84777354730540   12.87278899790064
S         6.62197957925027    5.09105069542736   13.81167973362778
C         9.42430947874759    3.59249570201413   13.88905501199729
H        10.38757537941474    3.50002204787211   13.38144746058284
H         9.26412823042665    4.62940527465088   14.19314521597201
C         9.36910213725343    2.66814001950022   15.09985478091532
H        10.15602499980816    2.93406952086617   15.79894207013926
H         8.40899052581273    2.76485031919707   15.60083000306775
H         9.50733578539006    1.63405300299884   14.79365528919679
C         5.09358234581134    3.51761231841531   11.51070518263941
H         4.89271867328865    4.55113465884176   11.80232362502175
H         5.00850409888180    3.41582353031797   10.42585452414270
C         4.12853930260240    2.56903060052589   12.21246465327789
H         3.10931386584936    2.80207243636234   11.92016749062173
H         4.34425397066789    1.53881033096457   11.93942773753387
H         4.21633643486173    2.67643093839807   13.29098887772401

