69
CSD_code = EVETEG | q = 1 | S = 0 | Stoichiometry = C28H32CuN8(1+) | MND = 4
Cu        1.81896013890150    2.96469032572692    5.94300903985938
N         0.78425960348097    4.53707209382724    6.81016611927912
N        -0.54902817078174    4.71516637006474    8.79089424790762
N         1.64526901928554    4.46005142946060    8.96848915091542
N         0.53483298360469    3.24411176230616    4.45402528538707
N         3.75863844420594    3.05729406302136    5.12865013278048
N         4.38662241659277    2.61191554979222    2.86151191797609
N         3.38010635147070    4.52168367950570    3.36543704187452
N         2.59505964876289    1.54076103735577    7.04675387215056
C         0.61562944310863    4.59476290183831    8.10161768722646
C        -1.86021358468317    4.43161981820800    8.26788273934636
H        -1.78039092204405    3.94682902585585    7.29637137655689
H        -2.44431862557203    5.34834208151950    8.15442709101473
H        -2.38761631197048    3.76395099425619    8.95121331583328
C        -0.31710530060299    4.62548221240258   10.22143026346136
H        -0.74278237627956    3.69529039517781   10.61685789571190
H        -0.79053751674314    5.46519510840092   10.73713839661307
C         1.21114117242684    4.64674530331241   10.33719322854470
H         1.57788174197009    5.60400009560579   10.72777713356010
H         1.59833639012355    3.84568731588091   10.97289832365898
C         3.03236167609430    4.58824666120403    8.62253335751643
H         3.16888182095603    4.26081148423566    7.59161340779666
H         3.62402912241508    3.95287657742179    9.28200563428121
H         3.37804508306680    5.62227021670148    8.72239472549588
C        -0.06696558239045    5.06603246327115    5.86986034871911
C        -0.73725879291231    6.26853514794660    6.02576425163759
H        -0.65995391174252    6.79786067509854    6.96351201028826
C        -1.48422178869796    6.81727452694057    4.98202896627653
H        -1.99465514750715    7.75445946295518    5.14422380829799
C        -1.56868565145154    6.19475079999668    3.76372509011933
H        -2.14464640542190    6.62369237698649    2.95875292783003
C        -0.88847602794616    4.98166863441788    3.54861833260919
C        -0.13502802264820    4.40915570143640    4.60596213631029
C        -0.90271587895715    4.29208815484066    2.31749193705841
H        -1.46481909797529    4.70065886266725    1.49067357812830
C        -0.20681299002290    3.11847960042137    2.19193183735764
H        -0.20376029313029    2.56600044283308    1.26565389349414
C         0.50129718752672    2.62733687495214    3.29539809358573
H         1.04631636098346    1.69536857438211    3.22842212382827
C         3.87371840157256    3.36647332699227    3.86962213667369
C         4.58720458311726    1.18714484218922    2.91327104726636
H         4.06251703805650    0.76436089682205    3.76931576736584
H         5.64862085902595    0.94140102381868    3.00071294932358
H         4.19736453930389    0.73317280057133    2.00132797014434
C         3.04010498214283    5.67242154396265    4.15299337268735
H         2.71732348541743    5.33653436590231    5.13680950038133
H         2.22197463357573    6.20775598456520    3.67002411974812
H         3.89304133524288    6.35052970519550    4.26182727039789
C         3.69259033616957    4.66049927051144    1.95927682301172
H         4.45708588219414    5.43308141275364    1.81038312029542
H         2.79901037176492    4.94858277494120    1.39801961320322
C         4.20732001388029    3.26751801222710    1.57911056825880
H         3.47975002187979    2.71795142193721    0.96961426528966
H         5.15439546371355    3.30355448185189    1.03399728622864
C         4.54088020547710    2.15344261569549    5.80478841810170
C         5.90758453536142    2.02737618380946    5.61384580724594
H         6.38732776259517    2.61411301072339    4.84462129728471
C         6.67178281969196    1.17792445658781    6.41495844049240
H         7.73336704787688    1.10561052281596    6.23294107649156
C         6.09919340803576    0.44729041928002    7.42346692620416
H         6.69244216626215   -0.20868167291720    8.04094551719766
C         4.71784421778945    0.55398885013911    7.66911050970208
C         3.92955533323060    1.41074934679347    6.85738072038963
C         4.05818224514037   -0.15285928090682    8.69705926039150
H         4.62939713090100   -0.81120064840517    9.33467092751387
C         2.70794389531843    0.00539291099046    8.86774788779547
H         2.17532222959992   -0.52380948975566    9.64170907324292
C         2.01138460265113    0.86715279185745    8.01251632379444
H         0.94399424752147    1.00310931681822    8.11852128357505

