33
CSD_code = EVEWEH | q = 0 | S = 0 | Stoichiometry = C16H12N2PtSe2 | MND = 4
Pt        7.23263233348533   11.07583142721098    2.45605409432365
Se        5.79505163040198    9.39935265799595    3.25926020826294
Se        5.60557649402231   12.68991009936996    2.97563731646889
C         4.23342227531854   10.31991451818864    3.82033257506227
C         4.15327281310174   11.70657606370280    3.70018793608626
C         1.94412429962116   11.65793946571777    4.63909593054321
H         1.05271497439215   12.17789974964999    4.95806221488163
C         3.16194246172217    9.61020013069346    4.35200407771663
H         3.23882637231416    8.53489802989075    4.43821167213390
C         2.02413349574896   10.27578276402524    4.75916097120240
H         1.19502150958407    9.71963715446129    5.17139894172075
C         3.00229185706317   12.36959942033809    4.11257605119639
H         2.95453457792646   13.44534618695335    4.01202801263606
N         8.73509397593696    9.80307613403010    1.94153290760967
N         8.58807413543994   12.40546015995922    1.72322247662226
C         9.81955653989367   10.40363729610325    1.39038332746068
C         9.73913642258717   11.84705271794530    1.27177679760658
C         8.44319153648715   13.72981267712300    1.64818879007631
H         7.50971667986298   14.13765900287916    2.02026167433291
C         8.73860120370726    8.47650033837055    2.08569710243736
H         7.85467205679106    8.03457118654251    2.53242451750707
C        10.75708729799540   12.64260167289843    0.73557019235248
H        11.66674502861479   12.18747973562482    0.38049770891446
C        10.92148585411996    9.64808343248872    0.97612315414156
H        11.77614885408095   10.13645142119099    0.53816777928662
C         9.79231606428669    7.67953977523064    1.69838581959505
H         9.74063386246481    6.61252401806493    1.83805104345515
C        10.59645436318928   14.00830295184033    0.66193318474332
H        11.37428187397816   14.63199990193406    0.25006956368586
C        10.91341975343188    8.27939163308946    1.12743197606036
H        11.75678460760680    7.68605732073810    0.81067626162171
C         9.40796706180514   14.56495363232010    1.13121622422972
H         9.23728773299077   15.62805732343564    1.09447949601956

