33
CSD_code = EVEWAD | q = 0 | S = 0 | Stoichiometry = C16H10Cl2N4Ni | MND = 4
Ni        3.81555804004040    1.92321831996037    9.45380493109790
Cl       -1.09429619310169   -0.10205015884769   13.59604883725689
Cl        1.46033902560272   -0.23950233334787   15.38191455816772
N         3.21480114501383    2.35327123956634    7.72589486961913
N         2.03078607191468    1.53498906343353    9.81288953523750
N         5.67171045398748    2.21725754213354    9.44173918503286
N         4.05932107508667    1.42552259801608   11.23092053883220
C         3.61820083221144    2.78058206292498    6.53265092807452
H         4.64775520969885    3.00646478118594    6.32090386843254
C         2.53673322030644    2.88137059256005    5.64558370111825
H         2.59336392001850    3.20195822368639    4.62372188566676
C         1.40798183560533    2.49297874849627    6.33833973242012
H         0.39959244578557    2.44526049905566    5.97620585707665
C         1.83531240809195    2.16413121081091    7.63686027327854
C         1.20970753828710    1.71145489474174    8.80498875034181
H         0.14261238731136    1.52505808177877    8.86684172621411
C         1.75569468610099    1.10400138735792   11.09426047516929
C         0.51918974191831    0.74962140032507   11.62153698020669
H        -0.37814664102296    0.78828886781446   11.02575299512322
C         0.43883747241158    0.33730386594600   12.94287349986077
C         1.58167223076500    0.27581248507982   13.74178044420082
C         2.82256114501194    0.62572294351367   13.23173294739625
H         3.68964431855320    0.56939354441596   13.86939056556738
C         2.92081797292178    1.04132848702471   11.90880326036300
C         5.29661198592045    1.49136855824799   11.66200059243753
H         5.58896219663646    1.23345451096264   12.67458235758074
C         6.21139357263460    1.92607795457864   10.69500238870446
C         7.59859804563778    2.15285446908657   10.66331840713347
H         8.27830763820310    2.01422279060066   11.48126121646549
C         7.89204254625525    2.58187740117408    9.38468068863325
H         8.85532748109198    2.84891909656677    8.99604747897948
C         6.68448832831924    2.60641992695005    8.67226553504354
H         6.54911786278073    2.89266694419993    7.64480098926718

