70
CSD_code = EVIBOC | q = 0 | S = 0 | Stoichiometry = C36H28Br3CuP2 | MND = 3
Br       13.25133704920271    2.80703868285936   12.76175366443901
Br       15.87025223944909    1.46902943450395    8.12383395327672
Br       12.20613590960756    2.82380136862123    8.29439866083665
Cu       13.43922192315044    1.23073193321341   11.11753775438841
P        15.22343729676244   -0.05268466116312   10.76060849146823
P        11.48082764304977    0.50810161038312   10.27703284360083
C        15.64697573515270   -1.09697330896990    9.32261113155850
C        15.89777557925414   -0.43553499874399    8.12069093662039
C        16.16347481639855   -1.12451329562261    6.95290977982230
H        16.35178404457125   -0.58324644424990    6.03887072636153
C        16.17712927617875   -2.50951405014607    6.97756069286489
H        16.37891173922641   -3.05723395715416    6.06968767918292
C        15.93682538003725   -3.18714909740476    8.16228889600587
H        15.95666408818694   -4.26653475550001    8.18145264626305
C        15.67152457094699   -2.48810693334018    9.32658736471171
H        15.48574710089254   -3.02175521325175   10.24803665929531
C        16.86966807650920    0.55300538667654   11.24212713142736
C        16.95701206896801    1.83379744570084   11.77671175195204
H        16.06430756437829    2.43490020753756   11.88566269344414
C        18.18553731723972    2.33385209716703   12.16900413738665
H        18.25054011342477    3.32712643710286   12.58628327862203
C        19.32509589449711    1.56116760228936   12.02050876343592
H        20.28579648120270    1.95243283713219   12.32105062188514
C        19.23905632564197    0.28541993308629   11.48373981681357
H        20.13006086865016   -0.31476582065350   11.36833479655078
C        18.01518427004521   -0.22404003000592   11.09356216016707
H        17.94503035442008   -1.22035973676641   10.67674578291211
C        14.83515307067027   -1.27714695688185   12.04734583415956
C        13.69990658342260   -2.06563085785588   11.85520277618928
H        13.15980163081382   -2.00731953341822   10.91566411872160
C        13.26081013121036   -2.91369626401205   12.85165641547359
H        12.38305914447502   -3.52253991707056   12.69146755304434
C        13.93806744917157   -2.96503653517463   14.06025529361845
H        13.58935807456987   -3.61979657959479   14.84479819137774
C        15.05234913236909   -2.16902280005733   14.26551346048385
H        15.57212576809897   -2.20006701120622   15.21158283035711
C        15.50108005933928   -1.32267837251438   13.26671007449413
H        16.36173606916935   -0.69070118554578   13.43500901349964
C        10.34570511181643    1.93030238513836   10.25060953064370
C        10.68656758150135    3.00127942299414    9.42563024957018
C         9.95303841048045    4.17065463750506    9.40949392320029
H        10.24642154585871    4.98393918413839    8.76384193663312
C         8.85439016613486    4.28520151159176   10.24501822710126
H         8.28296173253082    5.20049360528078   10.24981262068787
C         8.49872769586526    3.23535734531943   11.07551817110215
H         7.64438862858350    3.32821885699827   11.72856830493348
C         9.24005785610020    2.06742281288307   11.08357049813563
H         8.96539652646683    1.25590639012873   11.74213164978057
C        11.14181382043509   -0.27494318806612    8.66434595462829
C        12.18203330164812   -0.98054679474990    8.07088445169456
H        13.13680779906613   -1.04442224986237    8.57889029760768
C        12.00528878428528   -1.58332317109008    6.84004621665591
H        12.82031758410390   -2.12740602050152    6.38500319233679
C        10.78524870389389   -1.47572867896176    6.19314205890689
H        10.64411118985718   -1.93769721310552    5.22739817094252
C         9.74582497201466   -0.77009138087413    6.77927816843106
H         8.79645490481381   -0.68586836461254    6.27084132221853
C         9.91794471473193   -0.16825312254879    8.01200355865542
H         9.10790282862789    0.38407261588514    8.46995900391679
C        10.67529222396609   -0.62070451865941   11.45472143153229
C        10.79775941302339   -0.29711723006174   12.80612958341716
H        11.29855289045134    0.61747629086452   13.09751632343395
C        10.27604008528545   -1.13657988230459   13.77080118788614
H        10.36890312281084   -0.87683490720528   14.81454701654632
C         9.64290427606080   -2.31155625311883   13.39610698737888
H         9.23710261130504   -2.97061972134799   14.14948732138116
C         9.53602036402012   -2.64540116624239   12.05589100917557
H         9.04805102325554   -3.56435269445429   11.76363928277587
C        10.05397400695777   -1.80781453624980   11.08374236519855
H         9.97403528368783   -2.07602062471253   10.03903160679812

