70
CSD_code = EVIBAO | q = 0 | S = 0 | Stoichiometry = C36H28BrCl2CuP2 | MND = 3
Br       11.56590674786805    8.96081727417532   -0.25767440179374
Cu       11.72009104106756    7.08798355115967    1.03114199373135
Cl       14.85138314863394    6.38325115292433    1.94953618107290
Cl        8.49871770007882    7.12787544102674    1.91066266268397
P        12.55164261889238    5.08036901808068    0.60748168610884
P        11.12232041289494    7.44548312587662    3.18463919358322
C        13.34607472791968    4.18391178577927    1.98048315388647
C        14.37648871138968    4.86964201964234    2.62608829887938
C        14.98701000710330    4.36141693898152    3.75653486051867
H        15.77271143109511    4.91806049714030    4.24246062328664
C        14.56846510595433    3.13543959507081    4.24946806805966
H        15.03613734678394    2.72940449224370    5.13330681341650
C        13.55798429810924    2.43189295103535    3.61306371430553
H        13.24333573200984    1.47318908347312    3.99750791732310
C        12.94230214159993    2.95341488642929    2.48861012012532
H        12.14317010674025    2.41130322054860    2.00310126830766
C        13.77361407754465    4.89499873891752   -0.72452804473826
C        13.84965334627925    5.91322470608341   -1.66907447983731
H        13.20460267727475    6.77803413966974   -1.58216060684792
C        14.75567780646200    5.82020230805624   -2.71027954246505
H        14.81417771649609    6.61181657937618   -3.44186041778850
C        15.58760311828267    4.71695435129596   -2.80524553629430
H        16.29790563013875    4.64474296344066   -3.61566363009362
C        15.51617037163333    3.70451170644444   -1.86021861837290
H        16.16854127296537    2.84651220249575   -1.93601378690237
C        14.61229767321381    3.78808561502992   -0.81799191409341
H        14.55325559445221    3.00092222912479   -0.07782233909436
C        11.21731714238935    3.94106621677207    0.13165057857759
C        10.12240141313418    3.88896646606042    0.99474812422247
H        10.13799544089020    4.47036361215152    1.91026008581716
C         9.02847435087149    3.10572942333767    0.68566360059650
H         8.18580398362778    3.06620082382203    1.36041267451500
C         9.01092316391659    2.38340137897990   -0.49798684055752
H         8.15327719064808    1.77569840662304   -0.74550660717327
C        10.08577303636202    2.45060933447705   -1.36879344218320
H        10.06505491485198    1.89660954705487   -2.29586411222190
C        11.18764136310754    3.23004781594611   -1.06187037017545
H        12.02132516715956    3.28865568285306   -1.74750362309014
C        10.02820599634589    8.89640379064146    3.18154008325739
C         8.82349621265121    8.71542547590332    2.50098859177104
C         7.93090106460223    9.75042179359187    2.31335816034373
H         7.01229793350391    9.58592539535830    1.77252427913420
C         8.24942553651151   11.00114584315847    2.81858617611766
H         7.56690461324006   11.82327787584278    2.66841790509661
C         9.43592367852728   11.19999238034540    3.50469731314820
H         9.67557050051452   12.17758519306143    3.89451828872775
C        10.32741751723597   10.15664206496687    3.68358861248750
H        11.25793515704261   10.31881065131621    4.20813838971165
C        12.63023255217557    8.06366600185009    3.98953435061309
C        13.33368131587233    9.05106893398681    3.29759838702454
H        12.92566530673082    9.45927009067504    2.38101532806544
C        14.54807047280071    9.50294918585961    3.77484464240707
H        15.08354812665301   10.27101026663266    3.23675672771446
C        15.08245576542931    8.95812167632860    4.93239818315989
H        16.03674636371467    9.30414937286739    5.30151924015931
C        14.39726306140473    7.96378395529843    5.61014812867206
H        14.81631173335505    7.53357351211640    6.50867798993048
C        13.17554125282368    7.51205659286594    5.14270130367894
H        12.64809560443171    6.73260985528860    5.67509289059310
C        10.37870838272132    6.39254345405395    4.47406845596235
C        10.88790422352436    5.10159608735581    4.59135533567253
H        11.70690365504392    4.79499305020357    3.95260224598229
C        10.36204079793026    4.22340711167920    5.51920126703119
H        10.76753981710100    3.22549601820789    5.60434414326463
C         9.31334646255339    4.62625821250741    6.33036671234729
H         8.89468114765112    3.94097203818886    7.05243242093020
C         8.80066993837800    5.90825249672728    6.21404338478497
H         7.98413516434532    6.22215912091895    6.84791139110086
C         9.32752373674894    6.79313054098241    5.29049346214294
H         8.92542917879540    7.79319267958584    5.20637290362080

