70
CSD_code = EVIBES | q = 0 | S = 0 | Stoichiometry = C36H28Cl2CuIP2 | MND = 3
I        12.64473576892071    3.04092048940336   13.11468371172048
Cu       12.97567088542168    1.20057170782809   11.47209453138342
Cl       15.04191686045338    1.20383168882887    8.55705862625063
Cl       12.03483416364686    2.79634321096383    8.80628606534294
P        14.76031735818038   -0.08506728387625   11.17659404212630
P        11.11842084023328    0.50302670791481   10.40809153757356
C        15.02056826956993   -1.17433828545616    9.73970439939283
C        15.10424379384128   -0.51680830232938    8.51179148737585
C        15.22902525563882   -1.21069555372742    7.32465037395700
H        15.28903295613793   -0.67920404349070    6.38801510717807
C        15.26977694082137   -2.59583520162832    7.36402627112577
H        15.36751942799261   -3.15080922286948    6.44326808091977
C        15.18580937165795   -3.26717320772993    8.57345350610290
H        15.22007235444842   -4.34628530723768    8.59480503800389
C        15.05689532430121   -2.56360882221752    9.75875077002397
H        14.98675579226144   -3.08893763006335   10.70102484122742
C        16.42495683671687    0.59723705351527   11.43789458220616
C        16.51173275798383    1.78102244636033   12.16449422232619
H        15.61028127917681    2.24933060395307   12.53596440155574
C        17.74625869732659    2.35471239633170   12.40700630417342
H        17.80913509982624    3.27229724242408   12.97228724918480
C        18.89440870074714    1.75412153345907   11.91721010901915
H        19.85922873869129    2.20386110459409   12.09983943075364
C        18.80894727942957    0.57763688904203   11.18896122657118
H        19.70576821957321    0.11146783334668   10.80687028159672
C        17.57897381665753   -0.00563689103827   10.94690385024583
H        17.51350760269710   -0.92471195880617   10.37985787854993
C        14.58289995023717   -1.28104652953134   12.53471194408780
C        13.37286781682116   -1.97262809034790   12.58547117428566
H        12.64336565480350   -1.82856611098215   11.79471873133937
C        13.09694382055210   -2.82722095565280   13.63331908424590
H        12.15445521965120   -3.35463198844780   13.66381481727685
C        14.02664419215253   -2.98913202173634   14.64923408473564
H        13.81136303511801   -3.64968080400837   15.47586883768668
C        15.22486500404300   -2.29555322832625   14.61129256353871
H        15.94363114775863   -2.41630408186875   15.40840645315759
C        15.50557867909752   -1.43793436113346   13.56169653734408
H        16.43564236702683   -0.88737694028846   13.54181121846612
C        10.04608945858343    1.96588499395615   10.36369485500439
C        10.55989523960052    3.05564560976104    9.65917438398861
C         9.92156255216213    4.27876789152842    9.64684244119093
H        10.34535745073613    5.10827694426953    9.10297111437811
C         8.74311142692382    4.42012153483177   10.36277049596984
H         8.24069285727522    5.37492140736250   10.37341193318516
C         8.21804863162641    3.35147823717255   11.07028999590491
H         7.30348803297611    3.47347661614957   11.63027983421895
C         8.86654768915366    2.12891447676842   11.07960166307196
H         8.46439883063301    1.30218096614421   11.64737417514407
C        10.91779972168649   -0.22904775974060    8.75175702721140
C        11.72354843741590   -1.32764157824764    8.46455906842938
H        12.38970580116073   -1.71390752447862    9.22668379500962
C        11.67342505741592   -1.92519942052318    7.22038241716407
H        12.30139184455570   -2.77819536558334    7.00809127189790
C        10.82383220184129   -1.42053996838747    6.24913277093903
H        10.78748928800536   -1.87976564647375    5.27234957349904
C        10.02083611683780   -0.32689940169121    6.53003791751238
H         9.35651889370022    0.06365779276776    5.77292035481187
C        10.06312628063572    0.27135756619260    7.77640966316316
H         9.43138593282353    1.12211267065855    7.99214636427553
C        10.16551553160768   -0.64072311680190   11.45719142829129
C        10.23692169450576   -0.41089969741277   12.83103086658343
H        10.79626727142371    0.43820209832879   13.20193801092344
C         9.59679986192237   -1.25791166533276   13.71408711024914
H         9.65447694631178   -1.07025890759279   14.77586465462462
C         8.89123105020261   -2.35014583133772   13.23321858095507
H         8.39510851453230   -3.01868109647865   13.92144867381374
C         8.82432509052251   -2.58707448178196   11.87003939055150
H         8.27394966643862   -3.43821323252018   11.49555375046477
C         9.45960899715834   -1.73897447239847   10.97976897830468
H         9.40469235004550   -1.92971372427694    9.91684406713498

