73
CSD_code = EVICIV | q = 0 | S = 0 | Stoichiometry = C29H39CuN2O2 | MND = 2
Cu        5.43781127814025   13.79277876901187    1.62341816369953
O         4.51103406300817   13.73821177350646   -0.15386538038606
O         4.39567195839574   12.11527039203564    1.28175560342500
N         7.86487191963684   14.74731600695247    2.84367668060417
N         6.12678429287595   15.58523174908410    3.76938128064435
C         6.51768432852432   14.74538473797364    2.78973856040699
C         7.21269269990423   16.10563517200586    4.42706928181000
H         7.10939295962165   16.79501841484510    5.23924073996654
C         8.31128402354904   15.57564945341504    3.84225462947865
H         9.35330250083962   15.71254306194979    4.04473629323140
C         4.76915294430690   15.88433306913330    4.06071023766841
C         4.06464017866299   15.05438352337285    4.93391034740119
C         2.73593358970077   15.36201739936409    5.19489435113551
H         2.16272561834050   14.73490361424472    5.85964876478008
C         2.13308753271448   16.45495712656830    4.60338478129838
H         1.09729356262488   16.67717856472417    4.81389352888689
C         2.84475768743266   17.25775189240060    3.73234390446657
H         2.35457962552740   18.09637727655694    3.26383462925481
C         4.17583980041672   16.98892116374815    3.44570081792849
C         4.70404498709757   13.83265441473162    5.54832158292782
H         5.77183195417142   13.83006356711953    5.31072911473975
C         4.08794934203055   12.57151223697473    4.93819673315075
H         3.02146872179453   12.52559694727732    5.14407782686370
H         4.55947558004130   11.68522282284584    5.35596862394522
H         4.23315073468968   12.56411839245903    3.85868909695031
C         4.56494507845689   13.83260281835751    7.07235785755249
H         4.96048233767310   14.75492985004926    7.49351428285839
H         5.11754626780706   12.99595425094604    7.49393112189432
H         3.52523129464788   13.73630446151345    7.37286651933174
C         4.93879795101890   17.82524886488348    2.44648555008374
H         6.00747421016041   17.61130471599988    2.54557655214881
C         4.74672980009904   19.32538113313388    2.67619979881008
H         3.73092609498808   19.63428641030245    2.44584790836297
H         5.42121508637727   19.88537460711298    2.03225531922225
H         4.96137508248616   19.58602148130128    3.71070568952645
C         4.50588274258811   17.42623623837800    1.03285220246095
H         4.67675990873716   16.36215408436932    0.86869786559072
H         5.07237425556574   17.98800289782282    0.29393382265568
H         3.44773081129865   17.63027607354843    0.88821822672344
C         8.69286534689398   13.98127942312736    1.98046067040607
C         9.09336237700880   12.70677267198135    2.38744596117250
C         9.89152490589654   11.96796310073529    1.52530316774981
H        10.20716543553532   10.97551610237298    1.80541477447968
C        10.27804598813668   12.48387434168538    0.30296832145320
H        10.89774254532628   11.89473855897488   -0.35690198080041
C         9.86409173918393   13.74330241956417   -0.08465716825508
H        10.15997422884587   14.12577758504059   -1.04896255685181
C         9.06236917746524   14.51567301268951    0.74533652473162
C         8.61600416894222   12.12259665270691    3.69547604598429
H         8.21890322134724   12.92790980672712    4.32113542418214
C         7.47741402688863   11.13842763182155    3.41258325263494
H         6.66546157018719   11.63757358630022    2.88341310062062
H         7.08935598177175   10.73496278442138    4.34485297707691
H         7.83209476967380   10.31439727183803    2.79823958293619
C         9.74391487413802   11.44654617211914    4.47704448855317
H        10.08500633207890   10.54351802122695    3.97849624836587
H         9.38993360390768   11.16891800659495    5.46740765852760
H        10.59084887041474   12.12052933078509    4.58958255446156
C         8.57633262926305   15.87256997120147    0.29637657259354
H         8.05979384523397   16.36062262933040    1.12802486843426
C         7.56884888681196   15.70322373852956   -0.84317520760548
H         8.03264426613978   15.21775540048705   -1.69818896232355
H         7.19353126191782   16.67402205023681   -1.15792128294821
H         6.72591515496592   15.09620337831272   -0.51536470734951
C         9.73874359687477   16.77437888789078   -0.12497312638153
H        10.47541718367423   16.84827663116914    0.67272063890053
H         9.36983204251606   17.77308531173189   -0.34758878457558
H        10.23245887951313   16.39099191650952   -1.01367582163515
C         4.08273599266129   12.60253242697967    0.16700852521595
C         3.19033234914932   11.83219492858641   -0.77166841976027
H         3.20842590983046   12.28661901528134   -1.75799819542243
H         2.17399016693330   11.85049968175064   -0.38190209908558
H         3.51878586492021   10.79703812126817   -0.82076595698404

