60
CSD_code = EVIMEC | q = 0 | S = 0 | Stoichiometry = C31H20ClN4O3Re | MND = 6
Re        2.06166641067420    3.12025115777923   10.26073774639834
C         6.90633113720697    5.90838793277039    3.02341044271532
H         6.02020992997807    5.50036877884483    3.48590267790814
C         6.85119549209568    6.46289972498059    1.75832517827512
H         5.90459867391314    6.49868357206660    1.24002072728741
C         7.98867044509233    6.97146590022776    1.13657189527227
H         7.90359974300740    7.39901488378876    0.14894512026750
C         9.21948670828484    6.92359039024593    1.76024902892846
H        10.10502808488990    7.30108700171226    1.27220357403635
C         8.13551780456073    5.88159574995334    3.66492549358041
C         9.29935456154822    6.37102530869196    3.03147800857664
C        10.38954416693760    6.14062734346834    3.93904559118862
C        11.74812911692851    6.42170257339628    3.88703903924575
H        12.17391351570461    6.90067360707381    3.01864103990834
C        12.53551746236429    6.08280311657324    4.96943510613178
H        13.59473857623062    6.29035465342945    4.94887040759043
C        11.98067590147937    5.48756139689863    6.09934660457125
H        12.61749774132656    5.25056058002242    6.93868343571663
C        10.63103745286782    5.19807511566040    6.17344416069252
H        10.20966618533325    4.75638547526374    7.06407872914713
C         9.84025868959809    5.51081775155080    5.07794239332380
C         7.59621959281941    4.76655235997663    5.80713178228895
C         7.90560004538986    3.52963449212698    6.37386030657902
H         8.81936695779857    3.02829902748889    6.09375613752039
C         7.03525857829730    2.93725016246586    7.26604438912741
H         7.27246739605808    1.97334948547538    7.69424753116882
C         6.40089890733639    5.39574672771539    6.14931417668767
H         6.16790362423087    6.36209796840704    5.73038982443568
C         5.52699389123985    4.79867402579693    7.03784463425222
H         4.60420421777362    5.28846047450913    7.30657467738050
C         5.84201349349523    3.57091623954413    7.60176261976543
C         5.18200020567578    3.04934878409257    9.87128753869504
C         6.48791142783586    3.32585225109003   10.29940685176381
H         7.25293036304129    3.57809888271414    9.58501670451946
C         6.78991021474053    3.26776795911359   11.64258412972655
H         7.79357422049765    3.47689003858548   11.97995814854479
C         5.79260974923558    2.91588280215991   12.54131166316673
H         5.99070732328068    2.81613481286469   13.59522525160260
C         4.51713962119154    2.73545514854504   12.05162675969654
H         3.70090550726694    2.49124225186509   12.71919997539916
C         3.94047191270541    2.14282663497594    7.93721436716922
C         4.23581262655920    1.51277569434529    6.72060045929666
H         5.17117368654697    1.70796298614669    6.22338706456133
C         3.33375132257538    0.62776565117524    6.17143581779452
H         3.55806072930736    0.13521322119075    5.23771374851608
C         2.15257192538272    0.37106693141383    6.85220050591855
H         1.42714101337828   -0.33270418159000    6.47986306250738
C         1.91459306176151    1.06031815665352    8.02170496943971
H         1.00037042871057    0.89252387059891    8.57587109247436
C         2.47810826561771    4.78193414562335    9.35790934220844
C         0.19385085830779    3.16781212086859    9.72001049791908
C         1.58913796748727    3.99570048537140   11.93392505845159
Cl        1.81825288667834    1.00839006291045   11.25763817536558
N         8.47522926306357    5.36018644499649    4.90234954565062
N         4.90291772059159    2.97925352270088    8.50922389958991
N         4.20180199944712    2.84230250155975   10.75990718037932
N         2.76296684332741    1.94944283880645    8.54342431027010
O         2.75428184356900    5.75873216613131    8.80899071598052
O        -0.90408371614482    3.12018736248947    9.39430572753491
O         1.34333622396024    4.43792347462600   12.96158495587574

