59
CSD_code = EVIQUX | q = 0 | S = 0 | Stoichiometry = C26H25CoN2O5 | MND = 6
Co        3.85956481845311   10.69864251326704   15.41404469079167
O         5.51208562167095    9.92155677034417   15.85558505898631
O         4.70662647590429   12.37724189603881   15.39215260561016
O         4.24852953947828   10.69181125963017   13.54262689596227
O         2.17011103895907   11.41935948095486   15.04221009502545
N         3.07123637250918    8.99614148751917   15.38451096793237
N         3.30579259944205   10.75646104976943   17.27549740047224
O         2.31059146643432   12.21798332556463   18.73489931611593
C         6.51277236315524    9.82268178619985   15.09334911154013
C         4.53779053645533   12.66797887825871   18.12145519825152
C         3.04660035888418    8.12348826458423   14.39915178508423
H         3.58520666955104    8.37700245115344   13.49806775600978
C         0.98017351614845    7.32706832623639   17.91184314827347
H         0.40784248413181    6.42344529204127   18.05574247515027
C         4.16734680165806   13.48826223916431   15.12899167399121
C         2.47338325753435    9.70763541874452   17.54652457438615
C         1.65364115234012    6.61086843454785   15.62518358549454
H         1.10350266187138    5.68566339955637   15.71785835476531
C         2.39789768808239    8.72426220540347   16.52168718304574
C         2.34920113581857    6.91272531634750   14.48464440158868
H         2.36863495501496    6.23604674025384   13.64446938792509
C         1.88585455696577   12.64405510595732   14.92311688362594
C         1.05830814328533    8.28451224363985   18.89554356651593
H         0.53891599742246    8.12879744333702   19.83012747294495
C         5.39128250536040   10.51779649190362   13.03488761776227
C         3.27736300993143   11.87449760552451   18.06820842747503
C         1.65596547414654    7.52592565346923   16.69729385833991
C         0.42052258618130   12.97598732871759   14.77046184450172
H        -0.12972292771002   12.08671930368107   14.47622967980886
H         0.27499059225508   13.76678066034020   14.04046694620295
H         0.04204785712323   13.31580475731344   15.73317393079271
C         2.80385802038942   13.69382468895991   14.92777201974623
H         2.44823118822294   14.69813430968399   14.76719407888618
C         1.78853285709117    9.45889338141018   18.73220598032253
H         1.81809976602648   10.18307174711794   19.52873753044084
C         5.78173420173417   12.04729012487452   18.08784376104019
H         5.83406127539446   10.97827674937239   17.95808095569079
C         7.79990198601196    9.35531694943443   15.73450741167560
H         8.45892586917200   10.21210802871039   15.86329679808392
H         8.30259825619523    8.62468451674985   15.10691534556889
H         7.58997725275873    8.92558007080198   16.71003406854599
C         4.46069220937449   14.04194674580271   18.32440478082245
H         3.48610808235226   14.50527678623948   18.37494489224724
C         5.09270611018857   14.67874019369995   15.02468819085944
H         4.72736560466661   15.49247019729537   15.64447458690539
H         5.12980072709147   15.02004870296328   13.99196156025394
H         6.09004951936765   14.39404625250785   15.34742433454249
C         5.51275038462102   10.75477414551998   11.54546979918685
H         5.88112110995047    9.85895840616433   11.05048169971527
H         6.21875404265471   11.56150407673477   11.36110056391539
H         4.54266763849513   11.02543163404013   11.13768535243101
C         6.52776450692352   10.10074835631306   13.72570458296552
H         7.45138531834637    9.98787936279640   13.18185039786632
C         6.93255181196517   12.80264747893380   18.21926983607415
H         7.89976716871279   12.32069150925955   18.19005381785203
C         6.85225505378475   14.17452009509188   18.39694986981017
H         7.75448778564435   14.76137969704989   18.49804151430965
C         5.61386902735096   14.79299729025145   18.45484638148615
H         5.55042391704940   15.86155537275355   18.60505399438387

