54
CSD_code = EVISAE | q = 0 | S = 0 | Stoichiometry = C26H19MoO5PS2 | MND = 6
O         7.06356741559995    4.08585108510083    0.65747551288473
Mo        6.42308474742502    4.54586375413573    3.65763146580065
P         6.74213316170473    6.91961301752518    3.40913559154632
S         4.96725057951841    7.97574804255619    5.47263445930398
S         4.05132754417897    8.18959368424877    2.64043542083399
O         9.46099087407409    4.03499138012759    4.02705735991268
O         5.90262355784641    1.51230981193412    3.99239733134894
O         5.99655960652792    4.88621373681898    6.71293489942952
O         3.45330680452155    4.86032788002404    2.81812361573309
C         5.17191999022808    7.79540825496970    3.75915643258892
C         3.13737695639732    8.21841331115305    5.63850917586738
H         2.87227303705051    8.94768701123977    4.86868866641078
C         2.85385721833091    8.77322955374843    7.02470751928843
H         1.78511068791606    8.94989323519566    7.12755960620391
H         3.38332575418517    9.71100462860039    7.17655662672849
H         3.16354469750520    8.06849046129429    7.79245635120313
C         2.46276044566297    6.90364277126369    5.38048708854014
C         1.46627715029659    6.79997068619267    4.41943834103003
H         1.17834777621479    7.67153728722274    3.84990752162321
C         0.84792634138090    5.58377883217821    4.18602922784775
H         0.07626757773830    5.51272486169173    3.43431106907014
C         1.22766666247441    4.46039610070180    4.89946673019489
H         0.75367981263210    3.50972584550151    4.70606272545858
C         2.22557400458389    4.55576849317571    5.85552919995209
H         2.53190023997469    3.68209565910706    6.41216453446303
C         2.83610617050995    5.77202603472368    6.09762740799547
H         3.61282475313951    5.84702883015203    6.84550865546519
C         7.81715876016711    7.89088394076826    4.50247714693193
C         7.81977372173498    9.28279665134091    4.39055802714855
H         7.19900684305700    9.75822535855824    3.64115392703696
C         8.60932031557923   10.04026726163506    5.23203311642850
H         8.61113009865513   11.11666520951331    5.14401807097403
C         9.39651837321369    9.41931809223723    6.19103161953684
H        10.01221822990021   10.01454651080205    6.84871193527392
C         9.39066988146137    8.04017832025979    6.30943120700397
H         9.99968684279145    7.55822085917738    7.05962761717067
C         8.60078443682171    7.27435760098059    5.46840620605646
H         8.58727058500832    6.19565523007931    5.56366941749707
C         7.18480999975403    7.49030854516207    1.74877080932247
C         8.38446793754125    8.14179016105940    1.47885209518802
H         9.06882916750653    8.37543896561015    2.28291568099826
C         8.70442762354498    8.48204034130269    0.17653990738308
H         9.63620903449243    8.98814369955595   -0.02943301113691
C         7.83817856894751    8.17286542497534   -0.85884694806127
H         8.09149616006387    8.44362993603411   -1.87299881641723
C         6.65480553017325    7.50127962967107   -0.59638462927344
H         5.98600121720990    7.24446727113433   -1.40421622492623
C         6.33384752805813    7.14539564588953    0.69965918095577
H         5.41963748420004    6.60037853667038    0.90225734591072
C         6.80281426438672    4.27388240563422    1.74891739043275
C         8.34621129908161    4.25406604866965    3.94300859149322
C         6.10605808108143    2.62647657210813    3.86689348364226
C         6.12317661975915    4.79094573716016    5.58559378846605
C         4.52200782821507    4.77814179325710    3.19796052824340

