47
CSD_code = EVOBOI | q = 0 | S = 0 | Stoichiometry = C12H20Cl2N8O4Pt | MND = 4
Pt        3.35569741000732    9.53607365421878    5.21009394995862
Cl        4.07167918283272    7.41366293885019    5.86855843378563
O         4.25986685822610    9.71687305298440    2.55273734385904
H         4.41266427091147   10.63750809751697    2.28211506643584
O         3.09382191750880    9.49721543702903    0.65960949532314
N         0.61915355020686    7.58982216990125    2.91134673453141
N        -0.06322906443335    8.07751082809208    3.91868042113893
N         0.66952239347165    8.74508717508766    4.75798037766475
N         1.87908262404921    8.70419298487247    4.29938528461968
C         1.85349108730152    7.98277359614473    3.15451446588099
C         3.03906629908740    7.72340660699636    2.30443458901902
H         2.77209865417362    7.02833411418619    1.51096646511834
H         3.85036944311522    7.33922925864106    2.92728765596043
C         3.45959686024485    9.06763279923314    1.71587113757215
C        -1.48695354054496    7.91382015685352    4.06394965450034
H        -1.73537707527979    8.36755512584437    5.02812960250624
C        -2.18014438621185    8.65815790780574    2.92707624051183
H        -1.87424928850181    8.24048490917472    1.97106171630067
H        -1.92039248388691    9.71384208929686    2.94838310135463
H        -3.25736794546448    8.56313804329624    3.02636078809293
C        -1.81598506572346    6.42569222207354    4.06068911322070
H        -1.30652972226411    5.91807300237882    4.87622092203381
H        -1.50130633014667    5.98124297772491    3.11999723146316
H        -2.88630603851018    6.28484326611301    4.17802210106934
Cl        2.63980986517914   11.65849946745166    4.55170469390804
O         2.45187628737372    9.35520928176614    7.86750531771453
H         2.29869109359301    8.43455655765183    8.13785270216014
O         3.61803160187988    9.57388183296973    9.76067981379524
N         6.09313253174058   11.48138022792123    7.50871722957844
N         6.77506113833223   10.99387345314859    6.50099058419809
N         6.04186921756487   10.32677267829430    5.66170241211609
N         4.83248388178110   10.36772199572816    6.12075951286290
C         4.85863159259065   11.08873990579015    7.26586493040420
C         3.67342382372675   11.34817067578914    8.11643359206888
H         3.94087835759952   12.04277994399978    8.91015126967503
H         2.86209848849864   11.73295542941697    7.49400825390867
C         3.25242157653354   10.00388880818713    8.70453944324103
C         8.19873337992616   11.15749342945936    6.35516175515780
H         8.44675512780953   10.70344353324042    5.39104447887098
C         8.89239452307437   10.41357134141349    7.49200132207051
H         8.58685592825645   10.83162895303776    8.44796126223753
H         8.63260711863902    9.35788260737592    7.47119702659187
H         9.96958380947853   10.50857163908328    7.39224378445777
C         8.52775657762479   12.64562935229839    6.35769085915504
H         8.01790459143665   13.15294749137081    5.54221212571825
H         8.21350363280428   13.09038174162879    7.29836941721485
H         9.59802624438829   12.78644723866009    6.23983632097197

