46
CSD_code = EVOGUT | q = 0 | S = 0 | Stoichiometry = C15H20N4NiO4P2 | MND = 6
Ni        4.61751012767884    2.68339997886318    7.72815504270379
P         4.13596331900485    7.04502526585688    8.84513737432177
P         7.94744944711017    3.98795899607776    4.67082261490884
O         6.31744834524665    3.04008547896740    8.39658038342294
O         4.96695578256863    0.80360391362242    7.56403359783783
O         2.93837428421512    2.44062744269779    6.92545896073574
O         3.59168436560005    2.32394740621305    9.75896814048586
N         4.24175486411959    4.65004788949105    7.84784266147631
N         5.47495480246945    4.34510375155591    5.21405913748761
N         4.16173501898803    5.47847623861660    6.82012669137655
N         5.66712060250782    3.08083418899348    5.55776742645094
C         1.91384847913323    1.84587583974167    7.38732791318050
C         7.21766876755606    2.20389745549599    8.67538538444924
C         4.23846455603416    5.29641507480493    8.98658150849779
H         4.28972804830838    4.72358759699711    9.89710844066476
C         2.48923851718144    1.75567146730241    9.80261143348429
C         6.90297436353603    2.72567950121947    5.32066450716979
H         7.20105948674964    1.71433624724162    5.53430949308622
C         1.96608187467793    1.28761426407430   11.15114221013382
H         2.68558838017176    1.53043301388684   11.92865885997758
H         1.80497844504271    0.21209425125679   11.13190833931982
H         1.01677018563643    1.77118662350489   11.37136883280371
C         6.00131241292745    0.21374554762048    7.95348447186571
C         4.18763016474722    4.92686190468982    5.48393475617647
H         3.96209300121279    5.71539071545496    4.76189252563921
H         3.45398059801694    4.11017702321010    5.44059532219484
C         1.63733748344467    1.51003692130616    8.69915434341509
H         0.70327483298359    1.00649048277944    8.89767369004775
C         6.55866192982650    4.99840085234317    4.74208253890197
H         6.46931975005498    6.03291768728405    4.46329450945133
C         6.02210379718079   -1.29573944083800    7.81509701362606
H         5.13264640702518   -1.62420565497651    7.28474222567254
H         6.03740848240662   -1.74878263769004    8.80402899786415
H         6.91124234785008   -1.61498123813790    7.27693697327327
C         4.10677099048148    6.78412438837474    7.14278566921135
H         4.04151437440779    7.51746160219571    6.35952683509950
C         0.84898888471476    1.51429868644570    6.35163041982043
H         0.00347980581342    2.19056819613781    6.46568052784354
H         0.49552542739853    0.49611825457427    6.48533805142149
H         1.26153616676637    1.62621098486048    5.35232034123583
C         7.13883559670851    0.82532142064037    8.49320308261513
H         7.97595658259057    0.21152960390469    8.78395168489255
C         8.50482690210037    2.76416474884727    9.24581726520746
H         8.45220938812161    3.84928420699213    9.27400021585933
H         9.35005963707791    2.45611336751249    8.63480440635485
H         8.65263297260486    2.38599048998657   10.25470517833289

