28
CSD_code = EVOHEE | q = 0 | S = 0 | Stoichiometry = C10H6N4O5P2W | MND = 6
W         1.80027797608388    2.63242492184804    1.77603502330791
P         1.00738468215329    2.45952695283525    4.14403654395849
P        -2.47512345517735   -0.96742659448966    7.95984635680454
C         3.55271270541094    3.36566688635011    2.41277169553538
O        -0.87544007540145    1.49758012961440    0.57584875004800
C         0.37690561535217    3.56553000854285    5.34762346362381
H        -0.00233674014003    4.55806994253626    5.17922038480435
O         4.56924396697240    3.78345750259490    2.71803490799869
C         0.07603057088504    1.90351024485497    1.05453899019945
C         2.46639903756142    2.79131896442645   -0.07881711854145
N         0.86257801028745    1.86936052834804    6.59828027851518
N        -0.19206901139983    0.17523602531516    7.88005081800917
C         1.26729781629169    1.34501827118266    5.41982689728400
H         1.65014844267165    0.34021292260424    5.39651062763745
O         2.85638714043664    2.88838938223639   -1.14736915779965
C         0.85928450912266    1.15621990727899    7.85308029949623
H         0.70978446138339    1.89546563651278    8.64542337726001
H         1.80800475364713    0.62592850414004    7.98383319106735
N         0.09903786984766   -1.06968904651657    7.54013403833740
N         0.36395777678716    3.08676887190152    6.56364814455277
C        -0.97932315474787   -1.80245092636257    7.53973163994477
H        -0.88807113752500   -2.84482238028949    7.29245625220412
C         2.54560412770684    0.77507803180621    1.87150613667056
O         2.98637228974443   -0.27662356043925    1.88893516530205
C        -1.49410057110994    0.43382910794878    8.12749702035360
H        -1.78350275273745    1.43482012455762    8.39113804229269
O         0.67594435958279    5.55785343937456    1.52855018560918
C         1.06941078631069    4.49414620127648    1.64622804552212

