67
CSD_code = EVOLEG | q = 0 | S = 0 | Stoichiometry = C24H34N6P2Pt | MND = 4
Pt        5.80988083159655    1.54534358787480    9.20126722991638
P         7.50514244442783    2.48136111197057    7.86905705992778
P         4.82015777746657    3.55162431081948    9.88640800525182
C         4.47852158377812    0.49162059810695   10.27522755312553
N         9.08144247503802    4.37616247777504    6.57024780435895
N         5.08797479810201    5.98306855648964   11.20459762375625
C         8.25541892069362    1.52132755106468    6.45457256332355
H         8.38912106784604    0.48156438421406    6.77286096704614
H         7.55881933068976    1.52942920686172    5.60828859319920
N         3.44731008069049    5.91818920948339    9.40980045693362
C         9.05216092482664    2.53919077860296    8.90843477260844
H         8.90086507229840    3.23737457579741    9.74083890927514
H         9.22035639018482    1.53978949733334    9.32540209068247
C         6.56634223268145   -0.27068068243987    8.78501878112310
N        10.22844279285246    2.94423855788043    8.16633944610835
C         3.24284515249086    0.28681972357251    9.66328106685090
H         3.08347519302392    0.64196911374470    8.64524229741587
C         7.74334914301200    4.17151521382700    7.08579640870134
H         7.02881181934033    4.28847047806218    6.26204850376409
H         7.53439891140752    4.95010492972037    7.83001573308836
C        10.08365315231678    4.28221792849812    7.62000972852032
H        11.04659337332953    4.58224258179479    7.19420710819769
H         9.82208159867010    4.97232590815965    8.42753288728822
C         5.85208911916015    4.82764926472992   10.78122240423708
H         6.30229231605801    4.35790588695147   11.66371476014110
H         6.66358500039696    5.16513411658926   10.12495115173415
C         2.21426535839772   -0.36318087428715   10.32306812059069
H         1.26341013673202   -0.51579411559173    9.82991985055172
N         9.52949511208979    2.05347522006311    6.01703741672937
C        10.51714409429639    2.01899986368741    7.08204639618601
H        11.48858810125109    2.28880889771042    6.65517007187754
H        10.57025367563936    1.00408409369297    7.48444018756060
C         3.98009547299866    4.75594718531434    8.72891468551713
H         4.69764404411293    5.08765208678318    7.96873655283733
H         3.16001583267265    4.23754406282655    8.21875369311259
C         9.40667573791317    3.41489130034959    5.52775603144470
H         8.63339124344148    3.45007279795108    4.75544468923756
H        10.36506774413965    3.70718460019440    5.08655174342588
C         7.69889142694301   -2.72702169435881    8.05499206253993
H         8.13678416874965   -3.67432432827145    7.77341084212455
C         8.12173755066318   -2.07763101155592    9.20164761831560
H         8.89216963256649   -2.52003411264445    9.81910102831452
C         2.43828050882660    5.54898626400858   10.39106068344838
H         1.97523963967051    6.46927132268943   10.76177782091663
H         1.67509349706040    4.93553372812513    9.90497644396693
C         6.70760512261000   -2.15753765706325    7.27384162592874
H         6.36968029925989   -2.66244945812924    6.37893315709875
C         7.55869760793060   -0.86422353230031    9.56234486623481
H         7.89398518367714   -0.37800714950570   10.47382149333602
C         4.03267282348023    5.61350992644233   12.13601843655454
H         4.46948973709536    5.04986008597062   12.96464420811368
H         3.58841383894201    6.53538012125298   12.52525815237428
N         2.97708243162959    4.82313886669938   11.52789295423578
C         3.62309272953011   -0.62061720503226   12.24007049872303
H         3.77537157429754   -0.97605620265738   13.25031457035866
C         6.15198893762128   -0.94198855333576    7.63550872418642
H         5.37817230410845   -0.50507989072609    7.00933429321146
C         4.65181191223275    0.02687910263076   11.57418165857804
H         5.60291983440708    0.16420676393402   12.07652235994620
C         3.44656491244125    3.50549599160148   11.14660504013372
H         2.60930100121660    2.92821094822477   10.73808501910397
H         3.80625192824881    2.97790131892808   12.03760349635646
C         4.49343596083546    6.67732888301079   10.07388859685816
H         5.27655828791649    6.91700081395607    9.34846930563561
H         4.05387410043869    7.60963674182277   10.44282107792875
C         2.40300461328321   -0.81693619631446   11.61769568373800
H         1.60215037795607   -1.32347787345258   12.13775493608227

