119
CSD_code = EVONOU | q = 0 | S = 0 | Stoichiometry = C46H62N6NiO4 | MND = 6
Ni       -8.12632021376013  -15.95038122664537  -14.82485176112936
O        -9.09044444532985  -16.58614772214499  -13.36491927377626
O        -6.87583237813352  -15.30345734364992  -13.30299658225751
O        -9.17647025303332  -14.43331585539158  -14.97860449333981
O        -7.24532490556379  -15.30788291535031  -16.24442842112584
N        -9.33554646239595  -16.23123183096420   -8.54167840278558
N        -7.60845508749548  -14.40301724086667   -8.60248388737820
N        -9.41343795089640  -10.55480330022898  -17.90568214916771
N        -7.60277607597202  -11.55367363666597  -19.34951799599191
N        -9.74944482814315  -16.85487661685785  -16.34419031303489
N        -7.09914199082536  -17.64966732732312  -14.95141500118664
C        -8.64472397404875  -16.28069886275373  -12.19466473277289
C        -7.51553719732295  -15.35668036131963  -12.19913599337871
C        -7.19174424597323  -14.58569019677966  -11.04435661407864
C        -7.84689054759578  -14.97400975660562   -9.90082818213838
C        -8.82042488353923  -16.00958925788408   -9.86542683936396
C        -9.24677865425401  -16.69974890600338  -10.97831839847240
C        -6.10416342804846  -13.52933004105036  -11.16898253396693
C        -5.86947258384895  -12.71920997020245   -9.89333521210842
H        -5.50869766083145  -13.34747642934948   -9.08614342014905
H        -6.78260030495877  -12.23203587114393   -9.56698535286894
H        -5.12322201976336  -11.95234016350446  -10.09618568586569
C        -6.50438342278416  -12.54844634220240  -12.28068194521065
H        -6.66845387778567  -13.06695183634677  -13.22051723505136
H        -5.71699043125329  -11.81181322033485  -12.42806461981413
H        -7.41948968878482  -12.02819024805128  -12.00617608959067
C        -4.78796204626077  -14.22756098850464  -11.54197066354010
H        -4.89473659506849  -14.74578851027126  -12.49022077775611
H        -4.51318740693950  -14.95040320815693  -10.77553508032600
H        -3.98884449862926  -13.49423595051865  -11.62941598969215
C       -10.33851873160827  -17.76098583812098  -11.02364199316129
C        -9.85725724550343  -18.94691980657075  -11.87259208670364
H        -9.63161420165723  -18.62909470973765  -12.88474253145571
H       -10.62837066819310  -19.71393517139218  -11.91166290439677
H        -8.95931418080135  -19.38132372004754  -11.43624489101678
C       -10.73708570663716  -18.31379657991155   -9.65425227769163
H       -11.18368324331061  -17.54742153103513   -9.03168178703802
H        -9.87444458200103  -18.71810767194631   -9.13316712039759
H       -11.46200366573580  -19.11452212560275   -9.79377657802069
C       -11.57444989963396  -17.12174470714127  -11.67262155541272
H       -11.31279606025886  -16.68496282189503  -12.63184578444839
H       -11.96578548114689  -16.33357818688855  -11.03285292170294
H       -12.35319987078867  -17.86758209673205  -11.82059163971782
C        -9.93291968370366  -14.98308945537213   -8.07219522636486
H       -10.31011245141275  -15.15290264194643   -7.06057553074073
H       -10.77828302996682  -14.75423613018664   -8.72470344133855
C        -8.87152122271845  -13.86002749968502   -8.10947849506555
H        -9.17040005875866  -13.05241265202993   -8.78085876254758
H        -8.69012015105095  -13.43900628453503   -7.11754449327259
C        -8.21779880563454  -16.59009272532756   -7.67219705841857
H        -7.80848469567652  -17.53736576403460   -8.03011954895452
H        -8.61400090336180  -16.74168925296562   -6.66515766151273
C        -7.15643761509707  -15.46661625123084   -7.71036472081507
H        -6.99295319676258  -15.02874624061700   -6.72250198517975
H        -6.20028821308463  -15.83462008733998   -8.08950044846525
C        -8.80566545345162  -13.66325705393483  -15.96964091067669
C        -7.73697764180465  -14.20309113104440  -16.75127194605715
C        -7.24263596973426  -13.54253397074282  -17.89360376214765
C        -7.88851669886587  -12.34970014798511  -18.18015670991662
C        -8.90366294105746  -11.79330710725628  -17.37812586682459
C        -9.37820979332709  -12.39963912460483  -16.23059193692121
C        -6.14024804750290  -14.09788969569883  -18.79001259813501
C        -5.47881003512521  -15.35823592117983  -18.22654817510416
H        -6.18848603729550  -16.17466298180659  -18.12881534972119
H        -5.04854277960789  -15.16216558268402  -17.24911689150078
H        -4.68224071354824  -15.67594354057655  -18.89907292157096
C        -5.03862591805895  -13.04320448067512  -18.96474847118475
H        -4.20837617514213  -13.46546185106252  -19.52780999254518
H        -4.66854100845801  -12.72180033385222  -17.99366947016936
H        -5.41902350818501  -12.18301511784058  -19.50307693768913
C        -6.73545154981156  -14.43857017994405  -20.16313983356162
H        -7.55987276270930  -15.14145992682633  -20.05647089309553
H        -5.97561756434035  -14.89197584788704  -20.79695446004203
H        -7.09793034847812  -13.53889003997475  -20.64855628278192
C       -10.47144424946388  -11.88565584605693  -15.30527153685526
C       -11.01909998327939  -10.50944852364063  -15.68482500114479
H       -11.76463224258867  -10.21190981982033  -14.94848537508123
H       -11.48775587011721  -10.52745331490153  -16.66299145345721
H       -10.23037010035081   -9.76448139958811  -15.69645889898474
C       -11.63628798889826  -12.88515729628840  -15.31759257617501
H       -12.43416926729756  -12.53854804692106  -14.66369441583895
H       -11.29852751491171  -13.85778783336707  -14.97142424451440
H       -12.03296516311298  -12.99027102306723  -16.32622717174563
C        -9.89258227929245  -11.79136521895951  -13.88635747302848
H       -10.65631428604207  -11.44394527315562  -13.19298531152225
H        -9.06039645834183  -11.09045625499884  -13.86843669451422
H        -9.53997807347094  -12.76309558406605  -13.55409012793356
C        -8.30333349547836   -9.61317346885254  -18.01187315371553
H        -7.93629037108481   -9.41798218678463  -17.00222037873972
H        -8.69288722249459   -8.68024368982951  -18.42718756536862
C        -7.19605494992401  -10.21979601323793  -18.90274670423964
H        -7.01186408855722   -9.61083464464513  -19.79188916774866
H        -6.26011305272529  -10.32207590464406  -18.35073674010032
C        -9.94761628453810  -10.81793876367709  -19.23777116872504
H       -10.31559099767092   -9.87314881821420  -19.64609643850936
H       -10.79212677838571  -11.50229283381904  -19.12824731206222
C        -8.83920258423249  -11.43265921701205  -20.12364987815304
H        -9.12061635598660  -12.43043531304627  -20.46700311275739
H        -8.62722909935462  -10.81097880711818  -20.99768141070187
C       -10.97869573192913  -16.74473695045274  -15.84303322029779
H       -11.10705921519704  -17.10490877215563  -14.83154284507657
C       -12.04073057781733  -16.19862703767095  -16.54262881346672
H       -13.01428430289326  -16.12577515791113  -16.08355139703156
C       -11.82276491999907  -15.74008081739201  -17.83253693747211
H       -12.62226004881932  -15.28873980746521  -18.40207835182150
C       -10.55858535596315  -15.88729053037694  -18.37757738632597
H       -10.34329342561104  -15.56319187866981  -19.38416678985018
C        -9.56482815827996  -16.46176508892216  -17.60242804821064
H        -8.57186889674188  -16.61431964602933  -18.00371487981974
C        -7.66721071016781  -18.84778163826677  -15.05445437786026
H        -8.74498520255742  -18.86108076068778  -15.13693843497430
C        -6.93370896341611  -20.02213474347642  -15.07052616118618
H        -7.43880545769676  -20.97201104716290  -15.14860581680930
C        -5.55224620527145  -19.95089668613182  -14.98779430440414
H        -4.95039660675939  -20.84752316001709  -14.99781707171878
C        -4.96315706616472  -18.70035536720371  -14.89615922871781
H        -3.89161238763281  -18.59303347892004  -14.83694908378791
C        -5.77286829845090  -17.57679441209531  -14.87834463828699
H        -5.35261314070333  -16.58357879828958  -14.80024040039947

