88
CSD_code = EVOWOC | q = 1 | S = 0 | Stoichiometry = C44H38ClN2P2Pt(1+) | MND = 4
Pt       -0.03837595266457    2.54763983274304    4.93668378486228
Cl       -0.55540778932308    3.75226135659284    6.85023054365987
P        -0.67040716821439    0.65987376024662    6.13461330793013
P         0.52482779556547    1.49753339085389    2.96985869354087
C         0.40067492514708    4.34271806283093    4.12990141761198
N         1.54988051291058    5.00540548423282    4.29622419538097
N        -0.38638347576617    5.08801070251988    3.33238093879189
H        -1.32653772464921    4.84455075300025    3.06149080528163
C         1.51872709575060    6.19139691969680    3.59134314856539
C         0.26386000037907    6.24519476016269    2.96414680467355
C        -0.09610605175403    7.30781408114162    2.15195912179398
H        -1.06092450637422    7.34865789735815    1.67288132626197
C         0.83888816214214    8.31147795470876    1.98699030541155
H         0.59990007271933    9.15819527155532    1.36334802939198
C         2.08584066520327    8.26084759642078    2.61060319263527
H         2.78129670471132    9.07020543854495    2.45439445884957
C         2.45017445118442    7.20501508545093    3.42366660774252
H         3.41314591498172    7.17444112527931    3.90692767948916
C         2.64510040441731    4.55776319629131    5.11170181611797
H         2.77400183203235    5.22276148580149    5.96732440239452
H         3.56771798024936    4.53864172676363    4.53018678146185
H         2.41678105083891    3.55118747677440    5.47415319072533
C        -1.04366849737764   -0.90661438974505    5.27943050435735
C         0.00434177187585   -1.73202525361733    4.87912175421307
H         1.02373300973598   -1.45741329609587    5.11123040039231
C        -0.25528803305261   -2.91278521872339    4.21032296537447
H         0.56346405307234   -3.55145164232615    3.91418262330885
C        -1.56165786352780   -3.27902319196094    3.92887386590163
H        -1.76433692816271   -4.20546267671416    3.41392543591809
C        -2.60668804327680   -2.45763600041733    4.31595204701546
H        -3.62590646397467   -2.74176812792059    4.10209700693485
C        -2.35196089776661   -1.27395364789908    4.98500003559182
H        -3.17218974748831   -0.64038609115952    5.29121464565854
C         0.52028002247671    0.15071714762861    7.40454494977221
C         0.47574607625120   -1.11452096344663    7.98566451382978
H        -0.26711059898247   -1.83209574840935    7.66510885892971
C         1.38982094247297   -1.45174954381239    8.96702096475624
H         1.35115626441884   -2.43092009866855    9.42012765231900
C         2.35128192644061   -0.53804393810313    9.37073443548860
H         3.06100016465626   -0.80783289334473   10.13777434280218
C         2.40028733065979    0.71996901272696    8.79283857430586
H         3.14663561067724    1.43305661639094    9.10915589078684
C         1.48749977521465    1.06412107420816    7.81246297423513
H         1.50312294021487    2.05362399572714    7.36953553735173
C        -2.21552020403608    1.00726039791845    7.02000969100062
C        -3.13681736899215    1.83103575873247    6.37821064838332
H        -2.88433525427413    2.25078131664065    5.40832390168765
C        -4.34095637989464    2.13201023944633    6.98332615113418
H        -5.05179842687006    2.77600771545820    6.48717292882302
C        -4.62825290234512    1.61535698387403    8.23751633168881
H        -5.56467350382619    1.85636188806646    8.71694769602576
C        -3.71039214487402    0.80292039771679    8.88189912716713
H        -3.93116283138299    0.41188091804723    9.86357339995935
C        -2.50333710889925    0.49471456387953    8.27782372342313
H        -1.78382725490353   -0.12729913316874    8.79043096264900
C        -0.83156226050589    0.48155036561670    2.33048862813782
C        -2.10504096356181    1.00254555972199    2.55242362572345
H        -2.19722044747352    1.93115547208835    3.11099783354452
C        -3.22148362515321    0.34467471643965    2.07671038332021
H        -4.20692836764342    0.75177575249292    2.24594573090168
C        -3.06882922183026   -0.84621694017719    1.38301856662577
H        -3.93741337776842   -1.36432962376525    1.00704862494657
C        -1.80619383618236   -1.37779565609890    1.18067131924615
H        -1.69354708349569   -2.31155122837316    0.65145320683265
C        -0.68284935225625   -0.71960201535995    1.65182950377299
H         0.29814533098649   -1.14480438225679    1.50239117572325
C         0.86251876516932    2.68239365442959    1.62874436911697
C        -0.10525134834403    3.05791199552753    0.70409204510262
H        -1.05897781333709    2.54919795779429    0.68358138803820
C         0.15863254911855    4.07636413530493   -0.19622822077609
H        -0.59282307720703    4.36041285143226   -0.91724313072642
C         1.37896665159138    4.73032681830601   -0.17329057310761
H         1.57716197738283    5.52940124441631   -0.87031880481009
C         2.34988335527646    4.35380623513788    0.74213605041659
H         3.30472362786124    4.85717713727767    0.75384736474831
C         2.09402221230532    3.33580418887088    1.64001385739121
H         2.84788523763391    3.03140008016950    2.35453845831293
C         2.04070852890425    0.51209258181659    3.02546251047627
C         2.62264879011876   -0.00701625079149    1.87188502679232
H         2.17465715245481    0.18632008864289    0.90681525391148
C         3.78527878595679   -0.74982178454918    1.96944562913647
H         4.23590351115759   -1.15978302781895    1.07838410156431
C         4.37680150072578   -0.96336593262996    3.20570855375591
H         5.28327837896684   -1.54484713075788    3.27353367546023
C         3.81650621675714   -0.42054581982667    4.35129660204121
H         4.28600161389858   -0.57234380482132    5.31162479314331
C         2.65129181024428    0.31883516033351    4.26036848184211
H         2.20094044445896    0.75864807153964    5.14585887566513

