65
CSD_code = EVOYOF | q = 1 | S = 0 | Stoichiometry = C28H28N4O2PPdS(1+) | MND = 4
Pd        1.71895144689602    9.78791150266679    4.34966188439430
S         1.46829789122592    7.54070548694162    4.23739624481074
P         3.70578255338752    9.87830682749287    3.27372918684196
O         1.84678899428550   11.84337858698720    4.56732920251415
O        -2.34280066917437   12.09946358580785    7.85803440776608
H        -3.18354950416249   11.99309676786368    8.31547000475477
N        -0.02979654958034    9.77846131473535    5.32626002129918
N        -0.60789733955771    8.60919760559888    5.58817726282978
N        -0.54931445404077    6.32551805237410    5.39089445010861
H        -0.05918621228317    5.52193569211591    5.02653465752865
N         0.33779611018822   14.88560091060066    5.47597281363882
H         0.57242864228569   15.87258465786308    5.43521993435289
C        -0.01427573128551    7.52332075618768    5.15071735074970
C        -0.67840518669724   10.82905418786170    5.75422653792147
H        -1.59628018663822   10.61571108182480    6.29261557731755
C        -0.30443745995768   12.19577143767823    5.62044673845740
C         0.95069270134523   12.61514899322517    5.04091535012048
C         1.22484287442037   14.00953116825454    5.00003647674409
C        -0.84449505158575   14.51996395336972    6.00715161621068
H        -1.48715212875880   15.30891872854098    6.35996402497215
C        -1.19504817978918   13.19571165567034    6.08484234662544
C        -2.53924470534415   12.85224672431432    6.68163899868580
H        -3.07541322651865   13.78365356138263    6.90196291517546
H        -3.13113460726322   12.28408687450838    5.94679979145427
C         2.50387003860846   14.49333369009372    4.41879707515543
H         2.51487743021704   14.31510540826550    3.34260142938697
H         3.33213289957615   13.92007701308074    4.83329974174691
H         2.65667376485461   15.55231055141645    4.60908929115197
C        -1.76254080154897    6.10009468263177    6.13393491866241
H        -2.14494788525906    7.06154718513641    6.46508470370126
H        -1.56089336004719    5.46924782574004    7.00103976982317
H        -2.50570002138405    5.60767948477537    5.50466360042470
C         4.40029953518071    8.58837110697917    2.20217841472073
C         4.70769458473548    7.36812201671976    2.80074053790527
H         4.51796318904529    7.23491091805471    3.85879119820646
C         5.24157062895537    6.34436414528099    2.04319396735478
H         5.48150452404565    5.39918808729536    2.50581713763767
C         5.46544666988128    6.53163132596021    0.68705391583225
H         5.88121098215459    5.73090750937933    0.09484115897259
C         5.15294783581767    7.74146457655556    0.08985298894423
H         5.32555335005265    7.88360539288647   -0.96629922906893
C         4.61733437358540    8.77313074804817    0.84185831814945
H         4.37156062244432    9.71692044948279    0.37547962691356
C         4.99857025549697   10.11478483414507    4.52392363702379
C         4.59298646129028   10.16288027761929    5.85690504550849
H         3.52441316132489   10.07175803821870    6.10113810005414
C         5.53438204924726   10.31001425777430    6.85982526507598
H         5.22504736940805   10.34437754723222    7.89364008357568
C         6.87917648421970   10.40363680482729    6.53567434890107
H         7.61350027995957   10.51722199273331    7.31835728630811
C         7.28667182847647   10.33534461708358    5.21225779508457
H         8.33656276633717   10.39145728899283    4.96765841884783
C         6.35165985234043   10.18338399203526    4.20416323905378
H         6.66585920340878   10.09847855967962    3.17296015190990
C         3.59834666815473   11.35317499016286    2.22187712943256
C         2.36767119637852   11.51198750681535    1.58346254668835
H         1.58350805370840   10.76440334243659    1.74893797391775
C         2.14952295693007   12.60092416086449    0.76164098908224
H         1.20106471693182   12.72449324923836    0.26044487246825
C         3.15584912442596   13.54070353132157    0.58429453510872
H         2.98756829008992   14.39339648225955   -0.05608955803215
C         4.37329856996596   13.39086178755737    1.22858444569152
H         5.14989837456624   14.12816691198372    1.09119802307012
C         4.60014091375238   12.29743483123005    2.04927502274670
H         5.54599304064130   12.18532276478190    2.55845428847468

