32
CSD_code = EVUCUV | q = 0 | S = 0 | Stoichiometry = C13H11N5NiO2 | MND = 4
Ni        1.21210120984384    2.14193127307321    5.05987633714777
O         0.71996222320870    3.90995551786869    5.01697781162938
O         1.78909063896091    0.34950094097559    5.04343151277514
N         2.63938995809280    2.41249382548722    3.94956135759431
N         3.35060588748830    1.27884334512464    3.68990034649897
N        -0.26820602234471    1.78513150555747    6.24199753944870
N        -1.06680275891719    2.77851376242175    6.63478450301742
H        -0.87097815664989    3.71176445638309    6.28279135504808
N         5.35961669453910   -1.11437226067034    2.37415383998555
C         1.26271490292589    4.90911990671031    4.38324184994916
C         0.68330700376305    6.18919784013913    4.50873845197200
H        -0.19594597680507    6.29154150320882    5.12856338541571
C         1.21562582472999    7.27681374495341    3.86408641101884
H         0.75004578478498    8.24488246863857    3.97864231211243
C         2.35122663488074    7.14629765899143    3.06260356826562
H         2.75944809546431    8.01052020435534    2.56200782902493
C         2.93922212289984    5.91612383620092    2.91807885591574
H         3.81799155450972    5.79935022160813    2.30072143484769
C         2.41983374217076    4.78143047758729    3.56309261713828
C         3.04499861333122    3.51617754411517    3.39732277583365
H         3.92699459637869    3.44992315172474    2.76527943423623
C         2.83119064628017    0.25766046345065    4.30164514918902
C        -0.72089039266730    0.68074137016536    6.82242293383219
H        -0.24058402945953   -0.26463612448931    6.66092628989969
C        -1.83763719057194    0.98068696966608    7.60536375062086
H        -2.41922291828774    0.30138888006291    8.19253628374431
C        -2.02658430778436    2.33821263585297    7.45736779115537
H        -2.76413343349939    2.99157852435860    7.87734298254028
C         3.48122763966280   -1.10169794764707    4.14498864170165
H         3.89857244005651   -1.40569816834587    5.11045752265582
H         2.71551055428633   -1.82947697190857    3.85941774179023
C         4.52770841872867   -1.08860055562032    3.15677738399506

