39
CSD_code = EVUKOW | q = 0 | S = 0 | Stoichiometry = C9H20Cl2N2O5Pt | MND = 6
Pt        7.67561822906835    5.07237980575526    7.28037898113364
Cl        7.54758371070990    2.79409205228583    7.48694398367858
Cl        5.40154653836077    5.23300111676990    7.15705333917759
O         7.50824884587467    5.26761837314000    9.38991696571059
O         9.66916105070887    5.22025992053801    9.92189943729602
O        10.11512458182622    7.92828946356172   13.09990251596228
O         8.72115271794112    7.81002320487411   11.35154790789742
O         7.83025759156829    4.85125213875019    5.30095121919444
H         7.23827559765663    4.14083789560645    5.03487952589135
N         9.78707007307599    5.03429104739499    7.27897927053629
H        10.00427457975846    5.01192739032550    8.30649511322290
H        10.18276777758362    4.22367407708409    6.80793950882512
N         7.94522226525484    7.22464128946755    7.09760888048767
C        10.20435565795661    6.29483699705815    6.67451495793775
H        10.01362164898874    6.24837618631843    5.59887557923358
H        11.27312544488785    6.48046321761756    6.83837266458795
C         9.38832849600308    7.41569540148443    7.31990946601650
H         9.70474853973667    8.39227719087292    6.93244976134525
H         9.57449518692924    7.38787696295625    8.39785528325616
C         7.54205529602848    7.66989250721032    5.76495580558959
H         8.05059970722290    7.08730963407710    5.00039717502305
H         7.76342650939882    8.73378303470701    5.63204137348036
H         6.47230829280763    7.50367922386209    5.64878334079451
C         7.16690724019425    7.95651330598718    8.09561678136720
H         7.43505177468752    7.63284002231230    9.09952609482111
H         6.10859661852533    7.74962081160472    7.94181547627148
H         7.34371001143892    9.03343266303419    8.00156722592874
C         8.46902611349988    5.23777100267401   10.21135922189398
C         8.03596197989841    5.23859482428704   11.67842762719024
H         7.84427114572157    4.19719381375866   11.94673728292765
H         7.09862619263366    5.78814632943758   11.76223302270237
C         9.11965626131543    5.80952334982548   12.58075826442642
H         8.87887209601742    5.65070120531500   13.63352366059929
H        10.06507407656282    5.29750015589912   12.37779071497552
C         9.38620595029895    7.28293792633053   12.39446994173452
C         8.91658309590056    9.19673522260644   11.10728665777825
H         7.97043565996307    9.59905985874889   10.75024278369653
H         9.69608766747927    9.33245840755454   10.35480530792306
H         9.22186577652024    9.69569296891675   12.02878787948457

