63
CSD_code = EVUYIE | q = 0 | S = 0 | Stoichiometry = C17H40IrNO2P2 | MND = 6
Ir       10.62750102293322   -0.16409012333428    5.67443923646200
P         9.75654231605290   -0.07564568362816    3.54995917075289
P        10.91227448656854    0.07240293191231    7.94326175078418
O        10.76946986077402    2.04907887974935    5.56121289620997
O         8.74763773750538    2.84690884387288    6.07692651526360
N         8.51002209252313    0.12006213360078    6.22338695114028
C         9.93400535380351    2.94865369808902    5.75535512140269
C         7.56590659476229   -0.36657880399918    5.22811126379105
C         7.94118792453220    0.19666503819300    3.86018066103668
C         8.18556584039425   -0.29113084092185    7.58154015618313
C         9.17457896554205    0.34962702618419    8.55135487606502
C         9.75341053289626   -1.52998748378107    2.37949836046538
C        11.19490968581655   -1.88405469064687    2.03143763400747
C         9.06817970949546   -2.72728915308090    3.02858304882701
C        11.73195096676042    1.62534037786608    8.57919293183751
C        11.87114293658732    1.69155948943009   10.09660211992188
C        13.06162478206666    1.87506269481117    7.87556484620302
C        11.51388612205899   -1.30341447455176    9.05241730180102
C        10.62272985175124   -2.53091247782997    8.89934686573607
C        12.94767859595782   -1.65279532871292    8.66950516746578
C        10.13472895723652    1.41867287950303    2.49574333663715
C         9.50155113340190    1.39104382676443    1.10847592717746
C        11.63517348313363    1.68258582913577    2.43028711687219
H         8.47901381147672    1.16255823613522    6.19852156488242
H        10.33746554393279    3.99011845499744    5.61420865730751
H         6.53515564932649   -0.06599664972304    5.48048792171732
H         7.60404095069904   -1.46193949997389    5.21861969171563
H         7.77379243685985    1.27779778349069    3.87077576478704
H         7.32514585339149   -0.24205452960629    3.07206573450681
H         8.24271873192321   -1.38429824021552    7.63735036680270
H         7.15876603656226    0.00836577484375    7.85071130711422
H         9.03443367844867   -0.03220274811392    9.56508384699534
H         9.00344488500678    1.43016475880990    8.56016866364734
H         9.20102565519886   -1.25067903406937    1.47541774762689
H        11.23453391537916   -2.82448126461568    1.48409043624924
H        11.77177917360705   -1.98425926150903    2.95010801910694
H        11.65440463590874   -1.11575544690103    1.41578254827717
H         9.54423115970835   -2.95001976976426    3.98117454180043
H         9.15995104453485   -3.60088175806036    2.38499015545462
H         8.00888643461506   -2.54388475229635    3.19345840114136
H        11.04168938624826    2.41733219950866    8.25926212735456
H        12.17013844374319    2.69721536796417   10.38965400755137
H        12.63495714099460    1.00181889630383   10.44885367111533
H        10.93041982330019    1.46208107947648   10.59475412035899
H        13.80998254604129    1.14006538398255    8.15964774539371
H        13.43864314278648    2.86478172128420    8.13050171213703
H        12.91843442386547    1.82173903613927    6.79892658364748
H        11.47051134227439   -0.95961494049426   10.09186130241586
H        11.03640542201024   -3.36261810771479    9.46760281485984
H        10.57390472297262   -2.82020861145604    7.85169261906031
H         9.61552868562940   -2.34475276431196    9.26517747167610
H        13.00176178337867   -1.81887073452151    7.59417815004448
H        13.26993646502275   -2.55667703249689    9.18404216338310
H        13.63423961376937   -0.85248105847649    8.93162656745220
H         9.68504039115110    2.24223908869547    3.06630103528362
H         9.99797289790725    0.66598150335740    0.46731260741450
H         9.60380270508101    2.37107525577594    0.64401309339863
H         8.44044607138661    1.15155967580273    1.15778297291849
H        11.82370593100988    2.65060532533441    1.96779787005887
H        12.15150114528470    0.92106682058556    1.85215621649637
H        12.04705233327021    1.68939574327245    3.43658704656068
H        10.54984839290596   -1.68936599171683    5.74874719905270
H        12.11132864084190   -0.32508449841322    5.29012227718039

