91
CSD_code = EVUZUR | q = 0 | S = 0 | Stoichiometry = C46H38O2P2PdS2 | MND = 4
Pd        8.43253726039396   -1.48293327509820   11.83755578593774
S         8.74696887994596    0.02823147203174   13.50178830167884
S         6.51630914929796   -0.41001119183737   11.24875906850828
P        10.07194432082767   -2.86580835497743   12.55194423997680
P         8.41059014407241   -2.76598029408547    9.97714500766972
O         7.61778884365196    5.49358188748302   16.86695090894623
O         1.85538626132821    4.11645768428220   11.62914100153345
C         7.39336395496953    1.13639138198346   13.30987940843023
C         6.44444692606121    0.94273497258504   12.37086583480698
C         7.44379712684554    2.28999485997001   14.21103009725962
C         7.77618173983597    2.12622365406864   15.55562672352347
H         7.99114100008933    1.13555905728894   15.92896783060725
C         7.82529354350983    3.20694868407398   16.40715508622224
H         8.07344786233548    3.08394849125218   17.44999084941851
C         7.55227485464397    4.49104114636439   15.93707634160212
C         7.24604336743152    4.66807978262259   14.59286077127793
H         7.04823029189781    5.64940713499027   14.18977534373961
C         7.19910187840123    3.57770426254462   13.74396162795770
H         6.97191949704976    3.73082234229996   12.69926277361614
C         7.35806340020685    6.80845762575182   16.44814469449075
H         8.07864142730454    7.14203478030891   15.69349992494818
H         7.45859467196987    7.42828065029134   17.33827245088747
H         6.34321707766577    6.91269478979695   16.04889829630491
C         5.24592451783654    1.76959617099705   12.21418195741337
C         4.50252451873747    2.18061524020749   13.31616639914280
H         4.81027703670783    1.88306082406233   14.30772035126436
C         3.37153152985091    2.96153920703088   13.16489259281366
H         2.82467166769216    3.25997836160838   14.04604227153950
C         2.95160504316276    3.34106200003870   11.89533320442038
C         3.67643661105138    2.91110548940903   10.78439218002445
H         3.33517801934008    3.20274509911070    9.80318520276595
C         4.80207908526512    2.13479328198330   10.94334116089689
H         5.35792642846520    1.80685065287447   10.07692671191685
C         1.09711419615927    4.59113605678513   12.71145547408947
H         0.66670606445391    3.77033391752952   13.29513950792061
H         0.29194612701219    5.17987220640894   12.27377588178538
H         1.69322819113045    5.22988713090967   13.37230793664943
C        10.70134991220517   -3.81870241088475   11.12751828750155
C         9.90202080460402   -3.82135950176535    9.98018385445550
C        10.28552878491999   -4.56224701141469    8.86962270587611
H         9.66406920410412   -4.56060812743439    7.98535979852403
C        11.46035830838001   -5.29311331055762    8.89876126986175
H        11.76008671963426   -5.86482547419258    8.03310518026574
C        12.25740441273815   -5.28457444304463   10.03326458387406
H        13.17725326335468   -5.85027816073125   10.04998927798097
C        11.88070928164680   -4.55358395348539   11.14658897671967
H        12.50838000740701   -4.54139934097121   12.02688360153273
C         9.12269209745727   -4.16668975894535   13.41197340705984
C         9.69524677822016   -5.38118181532230   13.77823265271195
H        10.74435504207393   -5.56059446961288   13.58712931145807
C         8.91931469162493   -6.35113788660360   14.38560390394335
H         9.36332011373094   -7.29362174042801   14.67135327655969
C         7.57407681664192   -6.11741652534601   14.62620160583398
H         6.97267728192169   -6.88004307940041   15.09858902777998
C         7.00049627089732   -4.90914707841487   14.26440807976733
H         5.95314083757292   -4.72814273493004   14.45517814358878
C         7.77033444640448   -3.93250065151586   13.65727157831304
H         7.31891304729420   -2.96340444325861   13.37717452605641
C        11.52311579431714   -2.56189635013621   13.58734302326055
C        11.51073398794139   -2.79988146376743   14.95723051593865
H        10.63973721642306   -3.24557760772848   15.41748220182673
C        12.61330565271834   -2.46135026568731   15.72083053199452
H        12.60777889981292   -2.65034387861721   16.78420083065922
C        13.71928038104856   -1.87468940632647   15.12797260739355
H        14.57679472784595   -1.61116196752735   15.72911369635139
C        13.72205693795332   -1.61018901553329   13.76677434371972
H        14.57822967226056   -1.13663426870085   13.30913726820783
C        12.62382123222131   -1.94222550178816   12.99835057367143
H        12.60312037182144   -1.72549273132695   11.93702408626138
C         7.08390705630361   -3.81372246923540    9.34020991235073
C         7.08925619121038   -5.19432729862002    9.51610259489140
H         7.94202540197072   -5.67591355269331    9.97666147469793
C         6.00256096073132   -5.94187109743644    9.10000732675710
H         6.00947137462836   -7.01467218255900    9.22740652153152
C         4.90538972160497   -5.31813728956838    8.52791760648899
H         4.05993407475895   -5.90702367107861    8.20424249899667
C         4.88392312944796   -3.93880327792140    8.38493900029244
H         4.01957631786186   -3.45249277176118    7.95780376687208
C         5.96460770011072   -3.18400160284425    8.79731468479797
H         5.95325397146223   -2.10496624990788    8.71665764695817
C         8.80981308160277   -1.60984807888510    8.62746088054465
C         8.58169491125506   -1.88149603111440    7.28289155949072
H         8.11460106692569   -2.81185564714449    6.98994569679637
C         8.92870568185662   -0.94464540303406    6.32559701701689
H         8.74225593188662   -1.15103010285194    5.28169139157429
C         9.50629282954098    0.25702215429781    6.70190267754578
H         9.76883997751980    0.98624975361238    5.94976485426041
C         9.73831989572797    0.53015541276938    8.04121097245377
H        10.18027320852844    1.47146363957396    8.33278895047612
C         9.39109514334283   -0.39851122707347    9.00450982465918
H         9.55016685807032   -0.17609581430381   10.07530721018233

