90
CSD_code = EWABUA | q = 0 | S = 0 | Stoichiometry = C42H40Cl2FeOP4 | MND = 6
Fe        1.59896529862456    2.03750288109176    5.06231641022021
Cl        2.28446074039007    4.06564551256859    5.62865174268640
Cl        3.60876794835357    1.48285368477248    4.33760357942984
P         2.47905473337702    1.32827993180905    6.93579207144501
P         0.97982900206598    0.01278640794105    4.59291059434008
P         1.25657380289046   -0.82509526771851    1.67588680001367
P         0.87803049634326    2.97346716194865    3.20148208082549
O        -0.71348430718591    2.80013088094933    6.59466755335461
C         1.55078277237796    1.68688870340419    8.46177197887312
C         1.59427900234106    3.01918657030570    8.87085204543217
H         2.16831044840508    3.72849852399425    8.28879144310193
C         0.90619600354763    3.42895091175813    9.99532862253306
H         0.94396067819784    4.46370468385769   10.30215574841330
C         0.16578079110047    2.51243783291851   10.72501167993625
H        -0.37602065357642    2.82923177276048   11.60404661225457
C         0.11844468828186    1.18868996153092   10.32436913968506
H        -0.45881364199119    0.47183851687473   10.89108616580373
C         0.80412998935301    0.77359777749739    9.19581197499627
H         0.75322061316442   -0.26605670306728    8.90475119625731
C         2.50858018114393   -0.51700500019750    6.81929630752396
H         3.37096871817936   -0.77459137172211    6.19325657737285
H         2.64501862450010   -0.97855127632674    7.80085400001076
C         1.21094765533961   -0.95576102126810    6.15270552305279
H         0.35011866221224   -0.69797538194866    6.78241013653620
H         1.18652282388264   -2.03308634002114    5.95405610754481
C         1.93187679541320   -1.01326954608144    3.39494346005287
H         1.84699558149653   -2.06568582095396    3.68772147010212
H         2.97878589865195   -0.69694303334321    3.42637945867218
C         1.65083381049686    0.97734308318727    1.41801933388951
H         2.54339348565200    1.23985485067374    1.99790315725142
H         1.89136291809573    1.11901544456560    0.36200418578488
C         0.44521755571866    1.83733469469124    1.81550812206256
H        -0.37532094015755    1.19321183183714    2.15300484796940
H         0.08667297040421    2.43713212746469    0.97286030527776
C        -0.65417023018254    3.93771908696406    3.41901522665393
C        -1.89639339112438    3.54563066634882    2.92989958058592
H        -2.00123300546767    2.64390469344097    2.34478535791534
C        -3.01843060290692    4.31368436689552    3.18919258194462
H        -3.97842440972968    4.00079374238974    2.80333154245050
C        -2.91633116719859    5.47368915456500    3.93726145762755
H        -3.79699783386569    6.06488811830439    4.14123120699933
C        -1.68124533261168    5.87306248908037    4.42169899030821
H        -1.59350552211644    6.77813445836284    5.00431279192121
C        -0.55769551681228    5.11204115927135    4.16391045840571
H         0.40672187306376    5.42011164319735    4.54254096020716
C         1.88910575821923    4.18601528615906    2.28526785491179
C         1.25670268203637    4.99754297058743    1.34439443244945
H         0.18596528137934    4.92672843591207    1.20215577401138
C         1.99114930981275    5.90250025869646    0.60422277312226
H         1.49430469743697    6.53219168259576   -0.12005043432554
C         3.36076117282692    6.00636617429614    0.79309308143530
H         3.93161570696045    6.71810345997580    0.21459711553232
C         3.99127907568998    5.20235809945540    1.72546353994599
H         5.05733299526748    5.28269356995360    1.87826561539647
C         3.26050903955784    4.29353300219096    2.47140181958577
H         3.75800071218242    3.67854133689817    3.20385659612583
C         2.62095220847580   -1.55295360884558    0.69612745724066
C         3.67322866666251   -2.30090842394512    1.20875106002571
H         3.77130975420920   -2.46415316634317    2.27117812459413
C         4.61822428202597   -2.84674052749176    0.35667540064767
H         5.43819727811875   -3.41854436892994    0.76693421359007
C         4.51777309458776   -2.66643090605470   -1.01119341378551
H         5.25857204443973   -3.09404714669351   -1.67045019662055
C         3.45657335758749   -1.94391672980980   -1.53313022980550
H         3.36451555286814   -1.81100200794667   -2.60138023298997
C         2.51202575035033   -1.40140327645821   -0.68530448685921
H         1.67111020053503   -0.85220571375565   -1.08947476696050
C        -0.73926160078036   -0.45999652722862    4.21605872670833
C        -1.73768505765501    0.49930318651241    4.32567148356523
H        -1.46645787348914    1.51090233147003    4.58966873745674
C        -3.05941825107224    0.17412999218392    4.07983058230798
H        -3.82246276925234    0.93348738116955    4.16708705420183
C        -3.39447062087389   -1.11972088344257    3.71965904273482
H        -4.42428574385341   -1.37809200574585    3.52249764188101
C        -2.40451064702756   -2.08302604042641    3.60730034217714
H        -2.66348797265393   -3.09202151502055    3.32206084625016
C        -1.08339742750950   -1.76012029635948    3.85500428218289
H        -0.32519720560220   -2.52343831674032    3.76004498897110
C         4.15041646454130    1.71328512367079    7.55128565410181
C         4.55762525030839    1.05542545332442    8.71158822434412
H         3.89112193241414    0.35700391697767    9.20034340965528
C         5.80416185252602    1.30562864675398    9.24955928548414
H         6.11581875995197    0.78905091894300   10.14606165577579
C         6.64998510888533    2.22265239744323    8.64473433839291
H         7.62415019888339    2.41789462231037    9.06868504105110
C         6.23938014601846    2.89284392400346    7.50658876621110
H         6.88981582918372    3.61731150521959    7.03947259929041
C         4.99272583123517    2.64352566654579    6.95871442525702
H         4.67685942805983    3.17938027558336    6.07811596139427
C         0.14762773842081    2.45029927790387    5.92187522561104

