88
CSD_code = EWABAG | q = 0 | S = 0 | Stoichiometry = C41H40Br2FeP4 | MND = 6
Br        5.73809042394113   11.35808184493997   17.79599213993621
Br        3.21404840587243   11.42871737616553   15.32667395968214
Fe        4.55005338958014   12.94372672541486   16.53631696063098
P         3.56521400743048   14.70703827487594   15.72089215290327
P         2.98186619582926   12.89528968009423   18.06921166779015
P         5.78502098931742   14.60106099876473   17.20608075179635
P         6.12184848855660   12.70738417297339   15.03925364627895
C         2.74282188096566   15.31129266672947   14.21644736301677
C         1.74187291324513   14.51721554891593   13.66311503552467
H         1.54064628532880   13.53827139757159   14.07779528750568
C         1.03407161631968   14.96713659215037   12.56480994491585
H         0.26056571297554   14.34844745541054   12.13439970680195
C         1.32364167823427   16.20590485002702   12.01466485176832
H         0.77337270087388   16.55660319084796   11.15395945948974
C         2.32246329758906   16.99400115055631   12.56267167030893
H         2.54975164556428   17.95798576852818   12.13059289279833
C         3.03268710360317   16.55229513365477   13.66395687969864
H         3.81161321495266   17.17109110649923   14.08755003792708
C         2.27218427075687   15.20684548300640   16.95056644283761
H         2.77428433595576   15.66356043078178   17.81262738712654
H         1.57115817030566   15.92464955173474   16.51149829052013
C         1.60674659877630   13.89944300422698   17.36261153824647
H         1.24621381640270   13.38092460321326   16.46663882778434
H         0.76540396203088   14.02047529249127   18.04922920511927
C         3.23235853721754   13.66964851770748   19.70939325452949
C         4.35990023562042   13.29986982720562   20.43924609378207
H         5.08927062390574   12.63356017032967   20.00393070444907
C         4.56235855475182   13.77720467813013   21.72041718899776
H         5.42981252416310   13.45670475678308   22.27776014555790
C         3.66065985809909   14.66169513695081   22.28364912671968
H         3.81830236715414   15.03989572895363   23.28298158323635
C         2.55312990259014   15.06011839510058   21.55612636164529
H         1.84567065165915   15.75640784069803   21.98412641524645
C         2.33206737286101   14.56242859621264   20.28532750957839
H         1.44516337197466   14.88043152438624   19.75866066582325
C         2.17403001682361   11.34620685432689   18.57835871119985
C         2.74802681592039   10.57784269192125   19.58763377762860
H         3.65111187890062   10.90934870536487   20.07714091010860
C         2.17450764603559    9.37602517532578   19.95751513506411
H         2.63343817656475    8.78470322126470   20.73600962653262
C         1.02658673002778    8.92833104907234   19.32645194621030
H         0.58186416931596    7.98660129378856   19.61315132991498
C         0.45707035576648    9.68525403970674   18.31703853176603
H        -0.42997385335192    9.33474060663679   17.81010138490919
C         1.02630313128373   10.88649108903892   17.93809688579095
H         0.58313637672262   11.44370301158186   17.12729060792419
C         4.95835712295356   15.85415060187111   16.10105781987362
H         4.68906819244515   16.81964559471256   16.53467978809830
H         5.57136083231368   15.99980390492395   15.20399313160779
C         6.05796508807756   15.39037034309416   18.81694672475362
C         6.99216959443260   14.77258671583206   19.64903343831804
H         7.49780705888665   13.87656540069516   19.31153475172971
C         7.25358694002966   15.28575022515455   20.90307034941507
H         7.99101208484120   14.81284461414659   21.53478868491774
C         6.56197137074250   16.39948957417056   21.35293437595620
H         6.76422857547191   16.80254606041508   22.33398590663268
C         5.59728340391587   16.98471952526927   20.55143168434032
H         5.04080897171096   17.83879701070277   20.90943204947017
C         5.33985930573432   16.48232641428294   19.28900244738279
H         4.58206238972198   16.95262369749948   18.67773563222480
C         7.52329958373895   14.55363214171578   16.53567451901314
H         7.63570750721398   15.41892667795294   15.87249694989537
H         8.24439839457721   14.65972615270920   17.35021310569614
C         7.72418263894344   13.23906815804144   15.78848303014863
H         7.99734713013917   12.46053114151933   16.50645360690397
H         8.51415723128371   13.28661195930863   15.03352976727918
C         5.97896216502432   13.75011885023417   13.54940180484030
C         4.77023528848867   13.66994545139714   12.85929346929479
H         3.99069493564902   13.01586954876831   13.22728153059661
C         4.56599615279367   14.40171761408243   11.70411966972748
H         3.63061024866290   14.31296085223346   11.17161695939508
C         5.55357131773196   15.25506912155381   11.24424026019466
H         5.39429210570348   15.83882289802171   10.34957969288450
C         6.74948368405133   15.35815831915392   11.93509503576587
H         7.52286609258333   16.02539486566788   11.58100103659119
C         6.96942072080167   14.60425042054839   13.07417865928281
H         7.92072488078341   14.68951592361657   13.57904160804438
C         6.54558180520991   11.09141187124198   14.31198098609564
C         5.96476463218174   10.69180337392496   13.11066939119715
H         5.29169078025353   11.34958160564176   12.58293675431992
C         6.23695668888813    9.44352966658810   12.58417352958076
H         5.77302678642769    9.14630457496190   11.65517649186377
C         7.08844512447473    8.57699488023972   13.24752772071165
H         7.29583577332556    7.59945543035598   12.83747813393108
C         7.66262858315370    8.96480745559107   14.44539510265392
H         8.31772578100660    8.29106681836289   14.97764841719095
C         7.39225801434525   10.21026916178067   14.98153287741774
H         7.82625847288202   10.46878017194341   15.93468910775086

