66
CSD_code = EWAGOA | q = 0 | S = 0 | Stoichiometry = C34H27ClN2OPd | MND = 4
Pd        7.47362328355114    5.41544714490763    4.01799074808320
Cl        5.93012573775996    4.65993781202827    2.62752875515810
O        11.01469774597884    6.71671655803514   10.03687568471864
N         8.97784540488862    4.10411818398931    3.33730406681634
C         9.15434533925922    6.20595105716423    1.33234924600634
H         8.52295298508958    6.49689583256482    2.20621930238957
H         8.83724668709367    6.81471091294226    0.48322809163370
C        10.09958702784513    3.89151082954586    3.91275527329990
C         8.23034301524009    2.13122181714985    0.32766418118420
H         7.93690675724593    1.13063767164501    0.05576598856527
C        10.00307082538335    6.98937598499065    9.43621194229553
H         9.13961649389536    7.43654887736783    9.96986925595803
C        10.17572490458913    5.56040431386711    7.36649069859831
C        10.32445046061241    4.18298834798026    5.33736409953518
C        11.22877634066164    3.37525466213618    6.00712081833199
H        11.66364825537745    2.52879599551516    5.50044543934946
N         8.69485128417924    5.98355047809623    5.50741754092117
C        11.07961158695567    4.68554613412118    7.99915773310739
H        11.39070065779524    4.89482082479140    9.00903385234952
C         8.41842419035410    3.07525116115938   -0.66672882354208
H         8.28825373179689    2.79812706758354   -1.70194495460601
C         8.90325706900970    4.75885957058027    0.98796771024069
C         7.71184973076128   11.43983146837838    8.63988193580188
H         7.42483390227526   12.42362147546268    8.98007205857420
C        11.57549105272227    3.59680064771491    7.33709077263987
H        12.25706871761939    2.92144885482647    7.83033126594195
C         9.70193911885260    6.73328386815099    8.02263585417654
C         8.81157126462554    7.56415880488885    7.33873799234116
C         9.70857775282469    5.26350967875679    6.04562251740964
C        11.26863007262235    3.31519988875103    3.15375189666517
H        11.29349283542813    2.23079080348956    3.26026378481997
H        12.20982879300993    3.71972393454801    3.51803662923144
H        11.16509675846739    3.53502730915626    2.09302201173964
C         9.24954006478681    9.60976677497864    8.65667408034760
H        10.20091164130641    9.19436766017955    8.95659132504926
C         7.02013635042265    7.65321888703993    5.65284195770522
C         7.42242759908587    0.22599993732430    2.40858682383791
H         8.04702803810143   -0.38837864356546    1.76343179378176
H         6.49037563628714    0.44772681245695    1.89549001906174
H         7.19194129779154   -0.34963291878404    3.30259301400757
C         8.23352363699331    7.06646145521684    6.14819238167534
C         8.89002313927351   10.86409185364721    9.09740214533743
H         9.53108862768464   11.40258023054737    9.77853534401941
C         5.10730290545218    7.41473245182583    4.22907222220353
H         4.55018351645688    6.89528444471802    3.46113850687360
C         5.22794737645239    9.23868098851862    5.81246027163587
H         4.75884148879433   10.10330633648027    6.25530735085483
C         6.92873112396333   10.77482460045242    7.72128239480654
H         6.04669082759625   11.26352311405858    7.33968925519180
C         8.43328531429698    8.88934656169044    7.77667773659631
C         6.34454851265593    6.94105323715949    4.63614690763080
C         8.72779774187809    4.38026810508684   -0.33566903583931
H         8.81991253914499    5.12631690978381   -1.11133501796577
C         4.55986946397789    8.55072960919613    4.81991477830572
H         3.58871403864226    8.89851913667343    4.49707600908247
C         8.78642807817689    3.77516720544685    1.97596392700342
C         8.13145277543137    1.51490809934307    2.80023035601592
H         9.07051259196512    1.26436722167444    3.30611118929251
H         7.50890895423463    2.05468624046009    3.52749947513259
C         6.48179061505023    8.80974295408191    6.25157534228768
C         8.40418087665993    2.46377374746190    1.66075315280678
C         7.26749993606775    9.49964905893637    7.26001508013870
C        10.62049052711578    6.52019097006689    1.64061860357481
H        11.26198024126379    6.15702722622300    0.83930254251787
H        10.93628236091286    6.06342988050665    2.57580613336271
H        10.75801237829955    7.59560187882391    1.72929056392686

