77
CSD_code = EWAGAM | q = 0 | S = 0 | Stoichiometry = C40H32ClN3Pd | MND = 4
Pd        2.00772839370789    3.18419448687688   11.14919066056550
Cl        2.46159620454353    5.04926183445139   12.24936124282139
N         1.52948277785179    1.66892188304834    9.90633001234166
N        -0.15293276897880   -1.25039611445071    6.02879732958689
N         0.36174655099341    2.65871806762285   12.36490194334713
C         2.31772316429370    0.56694323725368    7.89912527028591
C         3.66625837710994    3.28269182222722   10.04529495294836
C         3.50111811454104    0.17010316538684    7.16341635434816
C         1.75076915206789    3.11366335104093   15.75355151242950
H         2.54689593396479    2.72498672573757   16.37132919415460
C        -0.50672187184291   -3.06099500756723    4.53867423683963
C         4.69687412759639    0.91252221244577    7.29001437756589
C         2.48594330994835    1.44317653233024    8.99619239258766
C        -0.51171439312930   -1.67459801119961    4.76432247965715
C        -0.01289294256738    0.41181827480276    8.53962678595959
C         4.74870941358524    2.04489797240280    8.19831900556229
C        -1.34019293905213    0.00301645248022    8.30909662117390
H        -1.57545662989774   -0.48308850563760    7.37661436531497
C        -0.69069584016555    1.18958822501502   10.76846643640025
C         3.67985855909938    2.23601841582714    9.09574063860971
C        -1.96948469265751    0.73720449932984   10.49381405269208
H        -2.74132700886687    0.83722325257140   11.24052038719275
C         1.01781052657585    0.15809294826838    7.58872195197999
C         5.81055838733611    3.97031252728572    9.18526674548908
H         6.64446232489536    4.65747885450680    9.21633540951402
C         4.75303542122617    4.14207340996443   10.07496701566509
H         4.77972190307352    4.96329486719196   10.77837365277541
C         3.50385874504900   -0.99555661933246    6.38850849477251
H         2.63008059597011   -1.62964612874722    6.38543441785019
C         0.55127887526613    3.13317688125275   13.68309967786047
C        -2.30547857630486    0.18511093772635    9.26019991817100
H        -3.32294351788208   -0.12094901215113    9.07175033764880
C        -0.97907322471103   -0.79591432699616    3.77538561450508
C         1.58574952062444    2.61487237554117   14.47120394035481
C        -0.43601573286635    1.68862337042785   12.12893594591647
C         5.81468272384118    0.50031896032100    6.55861947475751
H         6.73878037503042    1.04939952403322    6.64213682713801
C        -0.93605904216302   -3.55013959560434    3.31856212499269
H        -0.91769667440685   -4.61547582082805    3.13954762769135
C         0.30952591387507    1.10345303284467    9.75004752600329
C         5.81398151649455    2.94508512078819    8.26176413155392
H         6.64487985061797    2.85988932769569    7.57885990717145
C         2.51844518304773    1.58366235729807   13.90139410310092
H         3.01886264261953    1.99538704413705   12.99684598649905
H         1.98588925419785    0.67348965617949   13.61515153397912
H         3.28540474384399    1.32300719849220   14.62607427188062
C        -0.26850549402212    4.16407975029770   14.14858222552063
C         5.77551105740213   -0.61372593412599    5.74901495698714
H         6.65370407379269   -0.90829909779522    5.19394457241779
C         0.92180362575975    4.10907719288942   16.23961964998326
H         1.06514116262746    4.48779888092572   17.24019703628128
C        -0.06897663167059    4.64049400945515   15.43460101762326
H        -0.69105730384754    5.44350048477376   15.80129731979728
C         4.61995215401704   -1.38038206382176    5.67948900036472
H         4.60005319759134   -2.28302257480954    5.08739727245728
C        -1.05087425033819    0.68845018748191    3.99269928814135
H        -1.13213922722650    0.93849838531947    5.04874719368539
H        -1.91201809547103    1.10064023660771    3.47122304331488
H        -0.15941374085246    1.17636320472449    3.59743474209528
C        -1.39414373026571   -2.68987850145964    2.33523977631646
H        -1.73549374900589   -3.08073935978072    1.38845921242377
C        -1.28673646900745    4.76368206100026   13.22726021876266
H        -0.80402981965847    5.03062076590794   12.28400740184194
H        -1.72074710941129    5.65820477197452   13.66515736115852
H        -2.09030810114034    4.06017312019173   13.00527844970820
C        -1.42254087268476   -1.32881518830215    2.57327315443505
H        -1.79295600106916   -0.65796284473619    1.81115510647689
C        -1.18858163323630    1.00600428122165   13.24334923093963
H        -0.61808532338305    1.06776173110011   14.16829193279839
H        -1.38126209954718   -0.03680098487379   13.00492666050094
H        -2.14153434029228    1.50576632137505   13.41779041529776
C         0.01385626703667   -3.97382091242068    5.60616913133862
H         1.10478111861226   -3.98953554056222    5.59247616876984
H        -0.34311958491336   -4.98924245251721    5.45422131081431
H        -0.29944338223090   -3.61753542887504    6.58584371610237
C         0.72945736838942   -0.37276004187795    6.26634377366466
H         1.35148020665944    0.05908587842337    5.47102277032174

