81
CSD_code = EWAJUH | q = 0 | S = 0 | Stoichiometry = C21H44N4NiO11 | MND = 6
Ni        3.50278062909070    4.40845658980670   10.23152966975842
N         1.33576035755486    3.38867362320596    9.72885538900374
H         1.90123270734277    2.55074672756640    9.89119662512828
C         0.47499173287556    3.56267141311997   10.89010328124911
H        -0.14580673889213    2.67265845194527   11.08105401406410
H        -0.20343380376036    4.40311387736681   10.70632679047593
C         1.32389556355029    3.80006135970955   12.13753720271214
H         0.66042546507371    4.07014980435044   12.97461617629468
H         1.81537347813206    2.85930614490512   12.37763621431570
C         0.58390937946101    3.19947735257877    8.50046108663975
H        -0.11175523731961    2.34939158854588    8.55571381162322
H         1.27916377743210    3.03425188590677    7.67974601867078
H        -0.00034901619994    4.09658253624809    8.28234004316863
N         5.21092049438552    5.05873928593447   11.83369702986669
H         5.35608930027901    4.05054059858148   11.92482663079164
C         4.54127937330672    5.51153815968630   13.04121231962846
H         4.39909695944296    6.59664559644260   12.97039725528487
H         5.14004726667122    5.32491957217341   13.94950553012253
C         3.20966602352854    4.77528112889317   13.19647485976819
H         3.43646815278190    3.72826968427566   13.40894621332343
H         2.65566707311326    5.19131054990100   14.05199348909841
C         6.50662162260667    5.68769816985729   11.63926554051862
H         6.38289673247416    6.76669210444396   11.53549954652405
H         6.95000598733426    5.30200285381359   10.72436747933554
H         7.19473705330458    5.50264387859806   12.47717343324185
N         2.90697168406479    6.16908457436797    9.61681274586499
H         2.69687159271861    5.95918769388520    8.64120604339012
C         1.67867534651249    6.53289217704746   10.32124879838416
H         0.84935102400891    5.99249541110476    9.86947642978868
H         1.47545645049704    7.61081966593951   10.23210697710450
C         1.80492381590089    6.16050108256462   11.80204099394192
H         2.46758499564988    6.88374810126531   12.27791172485618
H         0.82472286157075    6.23534640812972   12.29328218268139
C         3.91363455961556    7.22397207460616    9.62822406683887
H         3.54882251444733    8.12937734931827    9.12452191399647
H         4.80372880230219    6.86002040489961    9.12052026054627
H         4.17474086455758    7.47666718904155   10.65274380833968
N         2.37668184554604    4.81473691769104   11.98298528267714
C         5.32527860038542    0.74414094703358    9.55487480077874
H         5.69763491382094    0.29554536560955   10.48398721688456
O         4.13800520989598    0.07375458995896    9.16031570440599
C         5.07041214175084    2.25020749262493    9.75239027430851
H         6.05170024680980    2.66803976735644   10.05849488906681
O         4.08368856218234    2.58490102526148   10.66593994860272
C         4.69833836921721    2.86719224477074    8.41149062543435
H         3.81294236161734    2.32754552055894    8.01620433341887
O         4.41432503768074    4.20787336415039    8.59967165260024
C         5.85318176951244    2.64037877048810    7.42865238808985
H         6.76298072955897    3.11594791077312    7.83211796402053
O         5.56017711258249    3.17546638634104    6.15919431321870
H         5.07011140716379    3.98991407647169    6.33571456883317
C         6.07355027489553    1.12377830752524    7.33083630819817
H         5.16980472149107    0.66763046927106    6.90449914508330
O         6.34041357726444    0.56136284940702    8.60986798671242
C         7.24634945240404    0.78174272054643    6.41780764351611
H         7.24023121178000    1.49102543495673    5.58029814182565
H         8.17407230088874    0.89349402984892    6.99201396159986
O         7.09279329436676   -0.53998933315968    5.95237075213378
H         7.88065993532481   -0.78717191020360    5.45724121998636
C         3.91523109981130   -1.13040010374528    9.85070195658498
H         4.76896829552086   -1.81271457774518    9.72364357837797
C         2.63428217903639   -1.75176498402084    9.26928593579986
H         2.49983718220412   -2.75358104648320    9.69409028459665
O         2.70852484162428   -1.90126254045117    7.87640270954246
H         3.20488711875256   -1.14725219066517    7.53028288881228
C         1.42825864816447   -0.88273259932795    9.65586176854992
H         1.52294227968268    0.08533193030452    9.13493413924376
O         0.21486961937325   -1.49944399959740    9.28249189298390
H         0.36963471408673   -1.93690687718347    8.43546849941968
C         1.40882935268968   -0.62277938183754   11.16840548347882
H         1.29050416741546   -1.58189395556306   11.69626138617126
O         0.35530967701420    0.24980512857888   11.49950158719431
H        -0.43526574480162   -0.11635129917738   11.08146445163357
C         2.75717263687623    0.00571670057464   11.53157031587824
H         2.88957157629503    0.90070836766353   10.90484063292328
O         3.79139523624318   -0.92626205865203   11.22352046515578
C         2.91685919290773    0.44812595126728   12.98135945091395
H         1.93116184352142    0.75688906508259   13.35898219509079
H         3.27649016560237   -0.39557353784188   13.57989400066176
O         3.83297161873801    1.50644026899108   13.11658805526911
H         4.01866237652912    1.88784972194034   12.21690760482809

