54
CSD_code = EWAJIV | q = 0 | S = 0 | Stoichiometry = C13H30N4NiO6 | MND = 6
Ni       -0.45196068072120    2.18091143096831   10.37487367234571
N        -0.49130306669041    4.61403301516633   10.34804727485626
H        -0.29363094678243    5.23393608108144    9.57051189997890
H        -1.50242501596369    4.54828499027920   10.45114125409913
C         0.09536873029055    5.09054355152734   11.58958517105549
H        -0.39916509012561    5.99265842686475   11.98617790212583
H         1.14488868121816    5.34679856922124   11.41811588969455
C        -0.02507154644210    3.99249349370613   12.64955321199652
H         0.49517848132643    4.31293166695472   13.56685113126860
H        -1.08606945463349    3.86385579152658   12.87072291483211
N        -0.36091672154883    0.03839695573783   11.52171583266705
H        -1.36476464063300    0.16311798164963   11.66002049511229
H        -0.20120340572268   -0.89340484754499   11.15430049377428
C         0.33368315141980    0.24453733781222   12.78039843585012
H         1.39383973559760    0.01036455619858   12.63453521443902
H        -0.03246731657934   -0.40416231334534   13.59345261818995
C         0.13920207186064    1.69613710499862   13.23187108475252
H        -0.92117543934274    1.82342811104985   13.45595743322141
H         0.71948618565962    1.87572348188080   14.15062384632824
N         1.37779254266712    2.01329299864661    9.69440206961186
H         1.63279068114760    1.03384510789453    9.80050543048224
H         1.39231151554890    2.23922871466050    8.70392381776399
C         2.25860908727780    2.87902548333446   10.46868133490904
H         2.08264111060986    3.90457404966686   10.14682839761591
H         3.32259716496607    2.64535653006956   10.30571682486045
C         1.93327205079185    2.72130947377790   11.96024173665733
H         2.36435863658790    1.77796567238076   12.29891411018659
H         2.40822864371696    3.52655639674689   12.53593702322835
N         0.48170847301615    2.68886676707840   12.20383961392617
C        -4.79070241145122    0.97546588983196    8.02765526415542
H        -4.78501794786712   -0.11549870963869    8.24721069553633
O        -5.61537312853462    1.25401275300169    6.95294521662624
C        -3.35580646047394    1.38269387119639    7.64382681449622
H        -3.37869704214375    2.40708240169823    7.24475080226470
O        -2.88194528938048    0.48713129857613    6.66747890110946
H        -1.92407633537421    0.61368028478497    6.65043302565629
C        -2.48469000311955    1.33156851934603    8.90493932792512
H        -2.48264906577677    0.27481833988222    9.25212428033709
O        -1.18630852466901    1.77108612559359    8.69459453810431
C        -3.12242272175979    2.18768472049331    9.98675706972615
H        -3.30110397556540    3.19818512787514    9.56578183725090
O        -2.23884151314743    2.24875331330953   11.06023172238399
C        -4.50173009315532    1.59734590738444   10.31863848175039
H        -4.37948420464081    0.54700555083509   10.63653221955123
O        -5.30067224618030    1.66557968301867    9.15565069532922
C        -5.16103724372587    2.39366212651292   11.44583165932169
H        -5.34904092235626    3.41555000845750   11.08292019164824
H        -6.11891138185706    1.94746562574128   11.72994937637256
O        -4.33369368277841    2.40878913776281   12.57921092095778
H        -3.40969296857236    2.42553300702345   12.21841061335151
C        -6.91544778963406    0.71542971019864    7.07066410794449
H        -6.87630261881097   -0.37742952252943    7.15409179386713
H        -7.44054701785023    0.99633363431226    6.16034897063355
H        -7.43170902968496    1.12506461533259    7.94267533786398

