113
CSD_code = EWALAQ | q = 0 | S = 0 | Stoichiometry = C43H63N6Sc | MND = 6
Sc        3.97405697418191    8.09305429744388   13.88176413041450
N         1.93182075099279    8.23217908150335   13.30548441995759
N         4.41140504156101   10.05739734117898   13.75114987585561
N         6.57886774294086    8.21571740635016   13.52529397939282
N         4.68031877718286    7.49772060626186   11.44998454719677
N         4.44357985252012    7.51277901846532   16.13651286302714
N         4.45623736564369    6.04741159610796   14.43005332755424
C        -0.05714278948281    9.41152183674424   14.17066869651724
H        -0.40033534118222   10.40307450951859   14.45496850435442
H        -0.13898861904247    8.75478909430935   15.03663516471170
H        -0.71921468049645    9.01300861203122   13.40584033511902
C         1.39403362973440    9.44354787343182   13.71859660519508
C         2.04395806378354   10.63019026174439   13.78179555424780
H         1.44720405918243   11.48492443515903   14.07224373010072
C         3.43585150830816   10.98904948277991   13.49403523941941
C         3.65620809028103   12.25824047813297   13.05865488894165
H         4.62379948420713   12.65784436919585   12.81785668270959
H         2.82766572025497   12.92890433685609   12.91589420204382
C         5.76383716229328   10.56541719869745   13.66382709115777
H         5.87783547234346   11.46410729480647   14.29574999690293
H         6.01525626310750   10.88081165258572   12.63262164348007
C         6.77352000485653    9.52586775321988   14.15452505614412
H         7.80069865596323    9.89679192291605   13.98941860141133
H         6.61739335374050    9.39257705041015   15.22994713761372
C         6.95134384449730    8.21347531142665   12.11028180590898
H         8.01971292220037    7.97429867250792   11.98125974411683
H         6.78513838123237    9.20251947183341   11.68479673599678
C         6.10922549288674    7.18508152041303   11.35770216942376
H         6.43290183328878    7.14403689148944   10.30272460507010
H         6.27139936422381    6.19988636717847   11.80212207204581
C         7.39466533124625    7.22718383342257   14.21857396725453
H         7.25097827184242    6.24442212897873   13.77388232323048
H         7.09595285221065    7.17996020744062   15.25899756618240
H         8.46510713678992    7.48358675837071   14.16879936252310
C         0.99745427662876    7.40695196984594   12.64443257429153
C         0.38393987742141    7.84169341453671   11.43948708657312
C        -0.56721312836938    7.04359669804585   10.82288126828093
H        -1.03800559654607    7.38825220692041    9.91415721225452
C        -0.93590216111844    5.81931276444733   11.34395737312980
H        -1.68439576617717    5.21618676393088   10.85149922460166
C        -0.33948365563669    5.38619766931555   12.51021704480477
H        -0.64014196313486    4.43821050123922   12.93113103673533
C         0.60706600180393    6.15660063850621   13.16915939547730
C         1.15799896637963    5.63963970573858   14.47889526355195
H         1.96843919951610    6.31396935510358   14.79567298408711
C         0.07959169294083    5.64738165370651   15.56576225707453
H        -0.30147890104130    6.65317189463827   15.72257699608674
H         0.49187868446940    5.28005012880449   16.50422790702742
H        -0.75526818946155    5.00894064130580   15.28382954738534
C         1.71698793135386    4.22231895005582   14.32238081389906
H         2.25515680824215    3.92489646723476   15.22042078053481
H         2.39137993846358    4.17002217328747   13.46973366501986
H         0.91513216534956    3.50488429143793   14.16333175900419
C         0.74390805044956    9.14687699719101   10.75524792471732
H         1.59908568704471    9.58873755671719   11.27435936143886
C        -0.39497211345969   10.17125278817879   10.80136451049696
H        -1.32690921103616    9.73183314040736   10.45127753670782
H        -0.14987446190447   11.01610472946305   10.16056263020597
H        -0.54172919147194   10.54673444196082   11.80812796027210
C         1.11400689858446    8.89930961975273    9.28405605716796
H         1.73426865843929    8.01265026600842    9.16998348841336
H         1.65108534069211    9.75715209336260    8.88342610196646
H         0.21918178179620    8.75839184450156    8.68237095442512
C         4.41275540843622    6.25297254211857   15.74038917129338
C         4.23271653390987    5.09906905811842   16.66391314329539
C         4.91451083218474    3.90462058586059   16.44400575450760
H         5.63834177400383    3.84055237441717   15.64236509714175
C         4.68969627373098    2.80743004490402   17.25448728159654
H         5.23013085273637    1.88873039347389   17.07809482288151
C         3.77312531204865    2.88548603439247   18.28992278569864
H         3.59470611551488    2.02729130990108   18.92081576565203
C         3.08797581336754    4.06822045267395   18.51359938795549
H         2.37125327391473    4.13360645412038   19.31915458082556
C         3.31600264612022    5.16939374760841   17.70845478033726
H         2.77724979938732    6.08821363653450   17.88197351116655
C         4.38073229981926    8.63134059943998   10.57456225960530
H         4.87897952233504    9.53254084579775   10.92142314609115
H         3.31437935603694    8.81975375032052   10.59092685823401
H         4.69253930743100    8.42560876819107    9.53853751832313
C         3.90989535845455    6.34323055515927   10.98419004044957
H         4.15783023550472    6.09250999912611    9.94082717592330
H         2.84378951396681    6.55923609016855   11.05021655865655
H         4.12466135360425    5.47882566144453   11.61127603728436
C         4.55276344028249    7.88647549240884   17.48281068561134
C         3.60609968958651    8.79374714457899   18.00049546927562
C         3.70520420408905    9.22870608384845   19.31210480686265
H         2.96891541122657    9.91516758347697   19.70310637766295
C         4.72418658167434    8.79719518336580   20.13685066402775
H         4.78653672084928    9.13827842681463   21.15969340834432
C         5.66771794113352    7.92985259270860   19.62852318274417
H         6.47724032807781    7.60617504468963   20.26536168994733
C         5.60568407764400    7.46371619336338   18.32287714168374
C         6.73524483797006    6.56951043051515   17.86001942560730
H         6.50878952024006    6.20097196540032   16.85721712822913
C         8.04006851294380    7.37303726899631   17.79997463214491
H         7.91321547323815    8.27164667241151   17.19930521912601
H         8.83818549492712    6.77162664465170   17.36774514030337
H         8.34414403021002    7.67887360606555   18.79805602873501
C         6.91571770017345    5.34898560164033   18.76679668454264
H         7.61620833355259    4.64900625808486   18.31472787555862
H         5.96831589684602    4.83911960321911   18.92015728447978
H         7.30874305663183    5.63767660254740   19.73811140371772
C         2.45895562977419    9.30792620222821   17.16035962918966
H         2.53849676534492    8.88243884708883   16.14305338661294
C         2.53853845761091   10.83068029537927   17.03436831318595
H         2.51940436965421   11.30877549197814   18.01117133192741
H         1.69922802351955   11.20022373808861   16.45228666040439
H         3.45690556627826   11.11179721922872   16.52376899396793
C         1.11739790986043    8.88553402742289   17.76653370116842
H         1.02843448872599    7.80102210290830   17.79159393963941
H         0.29570972519874    9.28625446791653   17.17796639582508
H         1.01585444488546    9.25796596178524   18.78360024373860
H         4.38354219180924    5.05728030487849   14.21193413797828

