96
CSD_code = EWALOD | q = 0 | S = 0 | Stoichiometry = C35H54BrNO2P2Pd | MND = 4
Pd        2.58488462878638    5.97556331480971   11.54511070616041
Br        2.40342234177138    5.50728926682817    9.16807257880217
P         4.52087949409636    4.73319436614238   11.66590023293197
P         2.49014400415951    5.81610798590792   13.79437695983523
O         3.41445106183358    8.37316677717530   11.02427541952258
O        -0.85448871202466    8.39719605970061    9.44692078590102
N         1.20688887307874    8.16471880713398   10.45162262038851
C         6.04065840664813    5.75145347132890   11.34720466605764
H         6.93633439210738    5.11801846266942   11.38923697333658
C         5.88828377908127    6.37322746859702    9.95691068741325
H         4.94553634552360    6.93131240771584    9.93317590911783
H         5.83959956982522    5.59582026413043    9.19089191803273
C         7.02853532238504    7.33574352923695    9.64851765133210
H         6.88351807193060    7.76291718683036    8.65441893246406
H         7.97997233427509    6.79606767574294    9.64599986756231
C         7.06920725048647    8.44103860652009   10.69736925122969
H         7.87333218123130    9.14671207444120   10.47742476196773
H         6.12096762697098    8.98193900852130   10.68439301896109
C         7.26880039941171    7.83000796564349   12.07887203243516
H         7.29807404180042    8.61593223074814   12.83725162740366
H         8.22528604004171    7.29993243873278   12.10946093880565
C         6.13677220096033    6.85752768180631   12.39740067767261
H         5.18613581697325    7.40262497210693   12.40746299262525
H         6.30915585121368    6.42541923848522   13.38664122109861
C         4.78066041434815    3.22080991588438   10.62231510717555
H         4.84389473361174    3.61170168851783    9.59716111312233
C         6.03619572756189    2.40596366228724   10.92324651447989
H         6.92911686686097    3.03211952108645   10.87763557571794
H         5.97346079218614    1.97844320735619   11.92707811366587
C         6.16299942150344    1.27562209301801    9.90228671274226
H         6.27589134503998    1.70550619396146    8.90465881170430
H         7.05699131105765    0.68532372890473   10.11675967889734
C         4.92836327512224    0.37926671693016    9.92693679659204
H         5.02723747923094   -0.40560409325316    9.17476567489225
H         4.85171527592989   -0.10417530626853   10.90466129346406
C         3.66684524895588    1.19690694069507    9.66492821354389
H         2.78709715379180    0.55267649592349    9.71699528789212
H         3.70694265214948    1.62843941698495    8.66335513792033
C         3.54501540959262    2.32123824398792   10.68771539786741
H         2.64703562447458    2.91211930875073   10.48205455473563
H         3.45133968262242    1.88167946130802   11.68517132908559
C         4.74193710005508    4.10871734901716   13.40880213617904
H         4.32042575788213    3.10034241512117   13.43350171938357
H         5.80820614488550    4.02640836114857   13.64022536350903
C         4.03172720527921    4.99214359444287   14.43602752059769
H         4.69438411560816    5.80827474501150   14.73566428782291
H         3.78250067847385    4.41668108688176   15.33389277323382
C         1.14826971003087    4.61994513109497   14.28104186109779
H         1.41267543738638    4.16325851503318   15.24500806391442
C         1.10760294955471    3.54042457048103   13.19528832289311
H         0.91563090365669    4.02652982565423   12.22141698259093
H         2.07723829557609    3.03919714435183   13.13997176688192
C         0.01604499262025    2.51114460967154   13.46516975621845
H         0.23329565922321    1.98458308119423   14.39894514952476
H         0.00190132367522    1.77408808038457   12.66014110280188
C        -1.34136668803476    3.19620087185058   13.57291083377369
H        -1.58169877625492    3.67417777148489   12.62118160855800
H        -2.11794107933359    2.45905428397193   13.78500358669495
C        -1.30644695705048    4.25005379557452   14.67413121087136
H        -1.10681132763098    3.76704432926496   15.63469042529870
H        -2.27527630947940    4.74800999234026   14.74609212105998
C        -0.22223678437742    5.28829218605804   14.39181674705214
H        -0.22354038515327    6.03185738979543   15.19177262186252
H        -0.45023929811235    5.79393493788723   13.45048051271242
C         2.29090887791529    7.26777034334703   14.92780111732954
H         1.27612455319023    7.64016490229905   14.73035781307004
C         2.41666413710331    6.95697021511667   16.41758875277625
H         3.42656220392757    6.60807548754406   16.64259358764882
H         1.71500084987806    6.17191123032014   16.70816512100927
C         2.13804846548770    8.22360040241593   17.22618822416802
H         1.11032674821181    8.54890072372542   17.04746516569573
H         2.23933547052075    8.00923411743078   18.29230998927052
C         3.09881567625029    9.34050023982605   16.82653564681107
H         2.87480584052346   10.24239145930140   17.39929777874153
H         4.12187500909915    9.03956004517806   17.06531874238598
C         2.99427541811406    9.63370258983642   15.33184234641294
H         3.70576521651948   10.41371510918350   15.05440942117543
H         1.99080812488736   10.00013362386207   15.10268276021874
C         3.27195094059552    8.36934532571136   14.52500100010926
H         4.29793542281907    8.04534481896434   14.71779180581991
H         3.17857315597986    8.57217983748498   13.45317584491282
C         0.89369466849309    7.14324663946065   11.42644273403927
H         0.01092251324106    6.60358949385202   11.04758579829646
H         0.60774567187562    7.65220944546619   12.36518045140693
C         0.31905679958942    8.66151654180926    9.50480909127062
C         1.12762974956241    9.56970711316921    8.64839281243877
C         2.43586254773817    9.57895964822539    9.14230664196228
C         2.47423451757467    8.66711305361583   10.30402005918677
C         3.42593826209947   10.32098716094728    8.53504625680670
H         4.43708185561389   10.31511998699393    8.91189341920716
C         3.07426193086269   11.06928371368877    7.41549653514468
H         3.82756854047095   11.65944017478822    6.91491041187565
C         1.77729712150587   11.06495969420412    6.92864572504203
H         1.53649921220042   11.65283057014035    6.05536906565934
C         0.77993821348237   10.30958277265063    7.54010548481411
H        -0.22934412012103   10.29362099510719    7.15975617631053

