29
CSD_code = EWAMEU | q = -1 | S = 0 | Stoichiometry = C16H4AuN4S4(1-) | MND = 4
Au        4.61353923566133   12.17416494700459    9.67748699053870
S         5.14959891051359   12.12808368992552    7.41645448551275
S         2.36303674133656   12.34793832770530    9.12429323129261
S         4.07516094223110   12.21422522765293   11.93843644774685
S         6.86376040745857   11.99977576899918   10.23476880506041
C         3.58519518957283   12.23169941260956    6.64858684611451
C         2.39352746332862   12.32648438212699    7.37891833789390
C         1.17866010855673   12.40714412865676    6.70845504105330
H         0.26874319873685   12.48000087968209    7.28478851750360
C         1.13057126323689   12.39378192061367    5.32062271476365
C         2.33096821333813   12.29693661038771    4.58478357180973
C         3.54235582737043   12.21771980566777    5.25937360609067
H         4.46836728178196   12.14342562724739    4.70939079257762
C         2.30473431069160   12.27909265864611    3.17567928464911
C        -0.10937305097376   12.47637629925091    4.65550056621304
C         6.82895172205634   11.98962246970680   11.98015684704822
C         5.63610468417070   12.08066230436487   12.70883616940878
C         5.67407266788774   12.06598668005618   14.09814404199181
H         4.74662653785192   12.13648379282706   14.64608022469394
C         6.88230029953576   11.96207219322305   14.77494845213827
C         8.08430398595113   11.87120976013540   14.04081602409706
C         8.04093979842163   11.88631282419114   12.65283334546720
H         8.95237036726256   11.81721556428498   12.07844724027544
C         6.90302544778660   11.94720252803297   16.18414928779663
C         9.32162680832356   11.76546000957140   14.70764785405538
N         2.29668147079110   12.26270604534428    2.02808510647738
N        -1.12478378320112   12.54430374100488    4.12462425592656
N        10.33359298898085   11.67881013895225   15.24188873743660
N         6.90734096134623   11.93580226212838   17.33170317436463

