115
CSD_code = EWAROJ | q = 0 | S = 0 | Stoichiometry = C48H63N3Zr | MND = 8
Zr        6.39359591783181    4.67383499335928   13.69339444335772
N         6.98035061605478    5.87473183234148   15.23267711591030
N         4.85884613207257    5.46855263112011   12.48507543213950
N         6.23102873959301    2.88142890592252   14.60236795701456
C         8.35235875158765    5.77267316060652   15.36622475834610
H         8.79387907204553    6.13638089775177   16.29829893689945
C         9.14328955821340    5.25334777168191   14.40197948229190
C         8.54982925650424    4.74133426286875   13.11304628726642
H         9.05820217523055    3.83356140475005   12.74533141622318
C         6.21114535194316    6.04199619973927   16.45064699642995
H         6.70618892313447    5.52885555023193   17.29930833677998
C         6.04150518180182    7.52511839845032   16.83408730191531
H         7.02528247806830    7.96228545924653   17.01769766909210
H         5.59167551185461    8.05771203131467   15.99379653954768
C         5.16019200981630    7.67369197541791   18.07031232957641
H         5.63984973638286    7.18406944334431   18.92119217113046
H         5.04406327483954    8.73119030797766   18.31676229864495
C         3.79193420802929    7.04207210219805   17.83131503150828
H         3.29096252782057    7.56285674402399   17.01209878613246
H         3.17194535383966    7.14812726576360   18.72388031135876
C         3.94499800286639    5.56515780660910   17.47704771360019
H         4.39943000864716    5.04102101438302   18.32171777071822
H         2.96350683595624    5.12019437445678   17.29757895882920
C         4.82900133787525    5.39711543106280   16.24068695403667
H         4.98526975539709    4.33074990028086   16.01476894233700
H         4.34745548620524    5.87517589939591   15.37167193807399
C         8.35077954548072    5.72098468597845   12.05150939872281
C         8.26388346868020    5.31932911727111   10.70085265808721
H         8.38294655017303    4.26666709670854   10.46032704986919
C         8.06853542677140    6.23503497038491    9.68771493128644
H         8.01145202139843    5.89561257849928    8.66184803005242
C         7.96361309048910    7.58983609667557    9.97042112883026
H         7.82133529816536    8.30506494071178    9.17403717994087
C         8.06331678241465    8.01262170149031   11.28916941306634
H         8.01355500645020    9.06940700502915   11.51576687072175
C         8.24525818875353    7.10552455125965   12.31346559043197
H         8.36537514182028    7.45628178817925   13.33340886290021
C        10.64266126781685    5.19552276039405   14.53680566915515
H        11.11839905457289    5.83023176016217   13.78591359932184
H        11.00519959430926    4.17755533965426   14.37953717194473
H        10.96350506111478    5.52802398736504   15.52229367790422
C         5.24061965169472    4.57296962059813   11.53262133016377
H         5.55467030596625    4.96228739594065   10.55263899690234
C         5.30238919973259    3.22538407747849   11.76206759811510
C         4.50789489083699    2.64129511680005   12.92882016989925
H         4.07721311154129    3.50650401356824   13.46941553634793
C         4.72214442385000    6.83528758518508   12.02117981355229
H         5.49186424604259    7.06809720992365   11.25819374686746
C         3.34349143654196    7.06429937412581   11.37833564754801
H         2.56877590484925    6.84039017929905   12.11681724954303
H         3.21600291515570    6.37277396295220   10.54183588521102
C         3.21144682431757    8.50650329687969   10.90048199201341
H         3.96184179645698    8.69852240898034   10.12983575647469
H         2.22638564659512    8.66114198584220   10.45460523784020
C         3.41769637913627    9.47985625008046   12.05786524600528
H         2.62557611675997    9.33544306339400   12.79682067069042
H         3.35129554767839   10.50742662648925   11.69432878697390
C         4.77513291386806    9.24741407947807   12.71735596097162
H         5.56787973543830    9.45248282466119   11.99549948754541
H         4.90154615606899    9.93185080622479   13.55945717135520
C         4.89163758674465    7.80271913110069   13.19547584479487
H         5.86783532318413    7.61979265198444   13.66790802109717
H         4.09885792139842    7.60384104133263   13.92519876284167
C         3.36134707501735    1.81045448087076   12.39751401510702
C         3.51149501422448    0.48482891618300   12.00678854058898
H         4.47171352433184    0.00221452669308   12.09290113806166
C         2.43807933970504   -0.23150412321544   11.50771640287914
H         2.57273032405072   -1.26219730559076   11.21243345957258
C         1.19635951523970    0.36572109991077   11.38196560775536
H         0.35916286003862   -0.19528822054417   10.99376899271974
C         1.03726145159999    1.68934063523163   11.75415448195358
H         0.07329175950608    2.16705836175117   11.65457481165908
C         2.11079691801085    2.40177516494901   12.25659007756192
H         1.98117110833989    3.43780435317422   12.53957486923230
C         5.82333926070153    2.28843769850701   10.70185132124277
H         5.02165881147237    1.68008322407755   10.27668967530662
H         6.57563443269290    1.60808418690732   11.10808624550041
H         6.28123586397869    2.85478977808764    9.89234685249361
C         5.40226978666176    1.88088615271643   13.94513340607284
H         6.01794182280955    1.15798134227020   13.37798100969290
C         4.54335390224778    1.07910092842266   14.91460919104481
C         4.66090290614121   -0.24979198353016   14.96386051055046
H         5.33900607692462   -0.73997004904940   14.27366548070890
C         7.37127159994624    2.40145464055459   15.36791233121166
H         8.00542499159783    3.28930897496718   15.54680050286104
C         7.01184246811860    1.84204800740121   16.76119135698857
H         6.38184085733773    2.56652980494125   17.28402219805424
H         6.45401771014581    0.91064040385219   16.65308572513000
C         8.28476897927882    1.59086331164290   17.56476064434533
H         8.81140390260154    2.53772318552083   17.70802250620318
H         8.03047562469350    1.19459483171465   18.55078234162552
C         9.19983229011466    0.61141431256763   16.83592331929521
H         8.69894602654997   -0.35627500582737   16.75421765713645
H        10.11880970739881    0.46510109981190   17.40763607242972
C         9.53182470991398    1.12714112015265   15.43847607527713
H        10.08287333642486    2.06682347808038   15.51865160950825
H        10.16770135645828    0.40565574653621   14.91931171904984
C         8.24883746139451    1.35859114982352   14.64676960691880
H         8.47779377720747    1.71553714232545   13.63593466810326
H         7.71087798161182    0.41096061900097   14.57110907726756
C         3.92570655957851   -1.17566702894826   15.82564819890736
C         3.75409072308781   -0.95465010097627   17.19059747728906
H         4.19128998944690   -0.08060309452454   17.64895946282489
C         3.06185758595439   -1.86411964324922   17.96952468428577
H         2.94206513342767   -1.68105004985820   19.02790048707494
C         2.52624619084746   -3.00702113458301   17.40116781767753
H         1.98213579307733   -3.71358171000928   18.01054917558572
C         2.70178992193166   -3.24483316453352   16.04745766393647
H         2.29358135837304   -4.13922206693900   15.59896874909778
C         3.40254123522672   -2.34339944965604   15.27053295266624
H         3.53771711460021   -2.52995032736907   14.21446088650334
C         3.57399397510383    1.84201519919315   15.76658778231262
H         3.12293549029134    2.65569629389190   15.20250933169327
H         4.07786174550866    2.27261865989709   16.63107179676398
H         2.78339291316983    1.18472878043501   16.12125400798450

