65
CSD_code = EWASUR | q = 0 | S = 0 | Stoichiometry = C26H34N2O2Pt | MND = 4
Pt        3.71616190542106    2.79053483020908    4.08413130423311
O         4.57489461247354    4.51994301395343    3.44227794796253
O         2.92366542589425    1.07064625706466    4.82798624130031
N         5.23293019167478    1.72208997390969    3.30570094503845
N         2.23236918754304    3.86197146735177    4.92321894845607
C         6.62168602807627    3.60344421035616    2.57424125248146
C         5.73617306780463    4.66789045723295    2.90725967241297
C         6.16713879602977    5.98846587047569    2.61997942049300
C         7.38862139080474    6.24178982015520    2.05923802005570
C         8.25701233033424    5.19263444088610    1.74174494601095
C         7.86992373474227    3.90436746321884    1.99570943469269
C         6.29652830217263    2.23422137264953    2.78261159736795
C         5.14101148442495    0.27555901516585    3.31115029110807
C         4.04965350255800   -0.20032896514623    2.34668235345852
C         4.33541927412722    0.18957691659637    0.90002262780788
C         3.14857277017422   -0.07936243795500   -0.02527169711045
C         1.86743487633214    0.67147566587780    0.34851876707559
C         2.05728421395990    2.18166526676217    0.47850802812439
C         0.72007851373500    2.91738701982368    0.55928286847688
C         0.89753583530026    4.43967228021828    0.47312393762739
C         0.00008138483210    5.22026322074475    1.43535067112683
C         0.36843729692899    5.03173702083587    2.90821636033281
C         1.74868450374588    5.58933775983969    3.24366380406074
C         2.17367410232465    5.29094843014721    4.68532649290307
C         1.06853461403329    2.01068999213833    6.03186417497476
C         1.88933140003627    0.93802939477662    5.58128061751604
C         1.53591424529523   -0.37217186571349    5.99500046720923
C         0.45707611626035   -0.60572620801891    6.80237883544851
C        -0.34160697144676    0.45288389520268    7.24692569794897
C        -0.03320574409014    1.73010805867298    6.86322853081822
C         1.30458771370627    3.36627095181687    5.67273530235652
H         5.48982155946809    6.79204287598004    2.86856348459681
H         7.68685622485390    7.26098345070403    1.85946473366030
H         9.21938670535788    5.40066270907191    1.30033572998523
H         8.53140322669013    3.08438215926861    1.75075015589070
H         7.06753807530642    1.54123246077997    2.43342433647006
H         6.10582474145012   -0.16601008927290    3.02884175336678
H         4.88047023610961   -0.05130902086417    4.32042359132899
H         3.95806572190913   -1.28469124373214    2.43028967450644
H         3.11145514263700    0.24808629274800    2.67122054942793
H         4.58905427458570    1.24975252797214    0.85187765206868
H         5.19965836323969   -0.37225665935296    0.53406416783080
H         3.43611534500681    0.20396231486097   -1.04103713884158
H         2.93389705896336   -1.15101688123762   -0.03134906031129
H         1.12876927861482    0.47663795894468   -0.43409295451950
H         1.45787837876115    0.27587321707664    1.27920076890358
H         2.63487948214978    2.41288123307389    1.38533393598240
H         2.61807747156418    2.54773764803583   -0.38535272832622
H         0.07012690840784    2.57872850427729   -0.25107750069381
H         0.23056267284625    2.64517929748876    1.49510484775452
H         1.93840193798041    4.69175256911018    0.67602459038090
H         0.68502847018769    4.77192724134005   -0.54518724948712
H         0.06300855606847    6.28353235494442    1.19051569275655
H        -1.03655975683656    4.90828165412580    1.28662959018399
H        -0.38461467162091    5.53006604234923    3.52539340143031
H         0.34494406252154    3.96828424465315    3.15329219249964
H         2.49750746135357    5.14559156957452    2.58879690533617
H         1.75991092725683    6.67091842648732    3.09606725583237
H         3.16915324810127    5.71056921906698    4.84709140952791
H         1.46912258909006    5.76092712418137    5.38425725155068
H         2.15878888753247   -1.18295901677047    5.64726245990848
H         0.21814540936366   -1.61650264015139    7.10049139008039
H        -1.19068530384542    0.26018126915284    7.88429838289997
H        -0.64492917412243    2.55667142633348    7.19874726941988
H         0.57913238383819    4.06498517053219    6.09954559682795

