59
CSD_code = EWASIF | q = 0 | S = 0 | Stoichiometry = C24H30N2O2Pt | MND = 4
Pt       -1.26080061238272    8.62908685535536   11.04210598036595
O        -2.75656484756862    8.42484607875408   12.41618409081758
O         0.17149843794716    8.60071716846082    9.58391981201708
N         0.09535538804667    7.97977259600909   12.37416195074542
N        -2.60299736279739    9.34757947164408    9.72848539700180
C        -1.47113797277174    7.37773383978161   14.15924636265395
C        -2.67527641053869    7.85830984805164   13.56812255127310
C        -3.87054153232628    7.71681904671374   14.31936466720815
C        -3.88179520931971    7.12864363830928   15.55390045775048
C        -2.69799141634252    6.65088470668481   16.12467961503206
C        -1.52331785809246    6.78154784963534   15.43412212970301
C        -0.19772366741029    7.49799357910190   13.53490675116297
C         1.49973388443635    8.04239739292851   12.02632050389992
C         2.02088579039570    9.47012697952529   11.81861541261323
C         2.00252025761063   10.37256536642621   13.05484527660761
C         0.63843271806957   10.94283597105702   13.45875958625967
C        -0.09445706872125   11.63369912667490   12.30860555899221
C        -1.26836565915200   12.47383687109351   12.80555534751583
C        -2.07598126148265   13.13170988417131   11.68095546769005
C        -2.62543786383219   12.16787871030361   10.62532574168044
C        -3.51138295086625   11.07842840237597   11.22556917250560
C        -3.82012050089004    9.94083978592167   10.24440550837752
C        -1.28893359812359    8.95533186811439    7.70344162954421
C        -0.04754571073142    8.61469826014462    8.31508069365507
C         1.03661231141478    8.30482837798950    7.45498427603029
C         0.90126487152117    8.30453252576352    6.09368565488784
C        -0.32233125538846    8.62895259706711    5.50065900336212
C        -1.38595164558596    8.95470439480627    6.29928382487797
C        -2.43167740233665    9.36131039057486    8.45079909817733
H        -4.77968325953528    8.08883188830456   13.87064316640468
H        -4.81247775425938    7.03214231588302   16.09442287066924
H        -2.71427533257100    6.18785191450174   17.09917313582293
H        -0.60063936313812    6.41995961603222   15.86775237327485
H         0.63045375467945    7.14220387465385   14.15544405664882
H         1.63667265362615    7.50345670802114   11.08410356222251
H         2.09876882184071    7.55029762184544   12.80497037071572
H         3.05784435320437    9.37095588854908   11.48825645298772
H         1.46323545489894    9.93059238513597   11.00558774984076
H         2.42150818232981    9.82785443247426   13.90550111671130
H         2.66920434893544   11.21493442822048   12.85100026604859
H         0.80765995104820   11.66389913934291   14.26395633315585
H        -0.00033891968802   10.15464131099372   13.86045697534934
H         0.59993684845520   12.27103601696706   11.75608163120223
H        -0.47220324842556   10.85691145185627   11.62832482384840
H        -0.88963871457823   13.26732225364813   13.45602253639129
H        -1.92231189862163   11.84801713590027   13.41491009696219
H        -1.44161394671834   13.86381025412213   11.17495926807878
H        -2.90914543152423   13.67605962341733   12.13270054273204
H        -4.45557927169383   11.50797213090678   11.56555636382954
H        -3.01104579512843   10.63597877581918   12.08529941445920
H        -3.19602026740384   12.74371980880976    9.89133834445061
H        -1.79057534186685   11.70555763597408   10.09493996892713
H        -4.37928041441911    9.16916782548154   10.78149320495884
H        -4.43516942206656   10.31559948293742    9.41542920096681
H         1.97908354251638    8.05890105862300    7.92144601007608
H         1.74717811637514    8.05243942432262    5.47034637891777
H        -0.42177285667813    8.62716992180286    4.42623623464412
H        -2.33560376451906    9.21604442042061    5.85223156632695
H        -3.24744287785577    9.75285967159188    7.83562446096723

