37
CSD_code = EWATOM | q = 0 | S = 0 | Stoichiometry = C16H16N2O2Pt | MND = 4
Pt        0.00001234265043    0.00000528714383    0.00000191512555
O         1.97293810310163   -0.24632226448046   -0.38750335168543
N        -0.08573687927633    1.58722647607710   -1.21185585388500
C         2.26593945020440    1.61695606872706   -1.88474226146650
C         2.71394339738690    0.48231905396276   -1.14887726778564
C         4.08287079957169    0.12998723721615   -1.26682633703407
C         4.94801056671101    0.84534080341276   -2.04818058955091
C         4.50264558840402    1.96034379476388   -2.76506001138091
C         3.18706484075566    2.32821833938995   -2.67832429063501
C         0.91809352619407    2.07229560802709   -1.86215879225145
C        -1.36240347021573    2.24789696438237   -1.37866213995622
H         4.41802348101206   -0.73214465142927   -0.70964509987242
H         5.98474536808858    0.54782990647363   -2.11319558748497
H         5.19115429120716    2.52080984000266   -3.37833072579566
H         2.83064712937888    3.18785787077676   -3.22956425601891
H         0.73566110535308    2.94973838601323   -2.48932372517703
H        -1.73197732297345    2.57738091115531   -0.40737434152141
H        -1.28162883981742    3.10862402129690   -2.04930656940759
H        -2.08788730252511    1.54072272965398   -1.78222349627646
O        -1.97294920581621    0.24626984767848    0.38744024086584
N         0.08570026075270   -1.58733288268645    1.21171433839576
C        -2.26593707821058   -1.61694552429326    1.88475634743549
C        -2.71394082708227   -0.48231406557793    1.14888252135507
C        -4.08284419865114   -0.12991580553960    1.26691815857956
C        -4.94796082882091   -0.84519792949997    2.04836172484376
C        -4.50259588794063   -1.96019664036039    2.76524850591164
C        -3.18703863643614   -2.32813689209321    2.67842954559793
C        -0.91811475673850   -2.07234947499977    1.86208263281353
C         1.36234084437381   -2.24807125610562    1.37844254322692
H        -4.41799569450285    0.73221161935912    0.70973021413602
H        -5.98467796683925   -0.54763876132110    2.11343876411325
H        -5.19108644782260   -2.52060721200925    3.37858945659831
H        -2.83062600043332   -3.18777911005533    3.22966816629107
H        -0.73567817812806   -2.94978674203112    2.48925459035814
H         1.73186754411017   -2.57754050024330    0.40713166492317
H         1.28155076889184   -3.10881488119227    2.04906322957947
H         2.08787011408237   -1.54094017159463    1.78200013703480

