47
CSD_code = EWAVUV | q = 0 | S = 0 | Stoichiometry = C16H23ClO5PtS | MND = 5
Pt        5.69022424122367   12.45361342664901    2.03279955629713
Cl        3.93729522645323   11.56456300351050    3.10073008731713
S         4.65968862949133   14.56710099424211    2.67993495105883
O         6.07657984267263    7.06097493296976    1.10244711099338
O         3.25447641223789    7.40280153145523    3.28915413120413
O         5.47523957996833    7.53930939127851    3.61609563140631
O         8.65226562621314    7.17256273525033    0.83462773724713
O         5.33617435266821   15.78722443991741    2.24105800306021
C         6.57090732651211   10.68843712003593    1.60700082911305
C         5.91905679310627    9.47038685148040    1.44519798126484
H         4.84439286054114    9.43073182627665    1.53699553092818
C         6.63123048818985    8.30453917784104    1.21289820589359
C         8.03416942132556    8.35967596012152    1.08490345896106
C         8.67602531818241    9.57940891443079    1.22256758809903
H         9.74938828827974    9.64496627444131    1.13536091515997
C         7.95768826939135   10.73956387875752    1.49142024969521
C         8.65792902682369   12.06386680688839    1.70068058417606
H         9.15962571274870   12.05662741233862    2.67214314037409
H         9.42704899069438   12.21030741349595    0.93628281329266
C         7.66578608961065   13.20370363030997    1.63912218638676
H         7.85063968011157   14.04416748018952    2.30666224453988
C         6.86188023245511   13.40023382435810    0.52765893080834
H         6.97575177324115   12.75832627489540   -0.34018263214812
H         6.43652462410528   14.38125187835331    0.34788715171134
C         4.73325881037748    6.89356245464405    1.46466177878945
H         4.53927007147341    5.82031440349509    1.37100693634359
H         4.04916182024735    7.42263579031987    0.78635554878410
C         4.38813645467917    7.31307355087635    2.89708227537897
C         5.32710937673071    8.08371248059699    4.92934909071854
H         5.57766873798373    7.29182436018734    5.64301891707203
H         4.28322653950001    8.38093137569536    5.07052735264284
C         6.26637217006891    9.26957169037027    5.07830787419252
H         6.21579269807654    9.64632212547154    6.09577690822953
H         5.98575027919533   10.06357684168267    4.38821032487328
H         7.28570922004178    8.96617563178835    4.85522517138263
C        10.05279941025110    7.15906322290990    0.72556846170279
H        10.39948648470086    7.77382566868971   -0.11218186097928
H        10.32261099556284    6.12008806419952    0.54294091103692
H        10.53393090841347    7.49991550562241    1.64862031587513
C         2.89240826058356   14.76101579652402    2.26623117658216
H         2.80749953925339   14.79125721006233    1.18488465591934
H         2.52630451362899   15.68660171351004    2.69425124957005
H         2.36647543071506   13.89979048981245    2.66134288511526
C         4.47235709852431   14.69230716863858    4.49200966870980
H         3.88555814532218   13.84289739410522    4.82185564761730
H         3.99110152301599   15.63203070739870    4.73601894681251
H         5.46452270540995   14.65816117391541    4.93098937678582

