26
CSD_code = EWAYOQ | q = -1 | S = 0 | Stoichiometry = C4H8NNiO10P2(1-) | MND = 6
Ni        8.26093014260095    3.96015932826288    4.41197790544084
P         9.44380816566263    6.09719239930059    2.82147388843359
P         8.56765090340494    3.90967808048227    7.32903905555159
C        10.02815904820312    6.44854501824809    4.57720939630115
H        10.96106408138228    5.91877056239255    4.76584675851150
H        10.18884863900692    7.52703373347469    4.70552701547511
C         9.36803044951389    5.52328417855874    6.78645224583578
H         9.16907971265749    6.29077862514441    7.54625762043883
H        10.43374420600623    5.28885904365791    6.80683411456768
C         7.81395554410691    6.79262905081140    5.41702821673049
H         7.79797233405281    7.35556086568778    4.47774284277151
H         7.76424764248865    7.49206103640947    6.26347362703226
C         6.51968093561761    5.93735416264308    5.42847655642100
N         8.98410999076247    5.95177200954127    5.45678026576906
O         9.81661537291318    3.84391451624758    4.25652983466689
O         7.61860746879211    2.75035693177182    3.62673881455994
O         5.47233838794561    6.42280336859669    5.79113417660529
O         6.69926396653146    4.72350206559607    5.06397444281780
O         8.24692940261984    5.10700802763211    2.98200233375268
O        10.64842445025830    5.31125661466695    2.12116375855464
H        10.69795759295252    4.45344904493148    2.56765583281705
O         9.09887628003943    7.32541301988809    2.09868983671357
O         8.36569187945170    3.06791561730688    6.04676817802682
O         9.35078596971795    3.29562648666958    8.40348639919726
O         7.10430468113297    4.31903071196264    7.87767780213922
H         6.42682275217802    4.27464550011484    7.19975908086794

