82
CSD_code = EWECIT | q = 1 | S = 0 | Stoichiometry = C22H48FeN11(1+) | MND = 5
Fe        0.18206800872586    3.92783585210887    3.30642515797508
N        -0.94138304036445    5.81484586252414    3.15527147193068
N         1.72379862537455    5.37275042890319    4.11817889976727
N        -0.33104365853736    3.92951227051351    1.08254234160232
N        -1.52782938322288    3.47236701028593    4.66693392010577
N         4.01918281522261    5.90038116783172    4.32698461617677
N         3.04128253972067    4.25354560960303    5.63845155296594
N         1.36938182191845    2.80619836022120    0.01363865787129
N        -0.75565018994459    2.72390081058089   -0.90933830589674
N        -2.36116634523579    2.30183824425368    6.54406181636133
N        -1.91170724088644    1.20237274766702    4.55289766383214
N         1.70661628689318    1.34638246533006    3.58374014912193
C        -0.10355689059674    6.88675544718172    3.71093457623485
H        -0.25163650880797    6.91855903490754    4.79121947496906
H        -0.38862675169082    7.86200555252165    3.29535980607490
C         1.38333442993557    6.61702850285357    3.45465611073781
H         1.55485052564407    6.55727192657202    2.37271053658378
H         1.97451110512480    7.45193845087814    3.85064049798691
C         2.90115367607134    5.17174917056530    4.63113436785509
C         4.35441567893160    6.27849976309243    2.97380731048614
H         3.66464102728889    5.81641287119629    2.27372954601876
H         5.36245279641337    5.92340613255845    2.74052625771223
H         4.33923823896294    7.36440829931638    2.84332473763529
C         5.06746415747341    6.13600902301699    5.29297083079454
H         4.71293468710129    5.88504544320115    6.28843016321968
H         5.33325432900751    7.19585340473707    5.26727995826506
H         5.96943945359141    5.55605520176267    5.07572103847246
C         4.05725868978695    3.22267353995736    5.52894759641205
H         4.84801631997605    3.53571737415900    4.85500951882411
H         3.61301938476899    2.30367974968148    5.13435833319864
H         4.48390072483792    3.01891281992835    6.51170592530534
C         1.85438408182293    3.81778166448525    6.33718477649940
H         1.23009424497942    4.68675671884035    6.53571630907135
H         2.16181852038649    3.36788820428231    7.28071983952213
H         1.27785643817198    3.08606297589798    5.75694954596754
C        -1.23578717724396    6.06194959485467    1.73792697552998
H        -0.35973829795845    6.52284025502030    1.27875650190616
H        -2.08452355046699    6.75024854884170    1.62870277962162
C        -1.51925685643388    4.75367113949309    0.98938030474500
H        -2.38585346323591    4.25934820103881    1.44406476053835
H        -1.76365504495978    4.98561700790673   -0.05453155046718
C         0.04483826226554    3.15050247986587    0.11346352142779
C         2.34421005296058    3.61564044096068    0.70811936666283
H         2.07659488347521    4.66393375479355    0.58705941447700
H         3.31884820834397    3.43592057426688    0.25471474256165
H         2.39706527135491    3.37814777047777    1.77947834792722
C         1.73828718438286    1.40527725223744   -0.07390718459789
H         0.90775914053824    0.81566839532098   -0.44860935487358
H         2.00934540886988    1.02857672253736    0.91728514140905
H         2.59125982799638    1.28854059379831   -0.74349184702132
C        -2.12676381369010    2.31630674582519   -0.71021370437572
H        -2.36510923545634    2.30642157053427    0.34872124974951
H        -2.25981789698320    1.30209891283670   -1.09775917994766
H        -2.82241873273512    2.97458016405286   -1.23839794164005
C        -0.23256912089916    2.43721238369448   -2.22529390287371
H         0.76881438818910    2.84678301741954   -2.32060754360776
H        -0.88129722939195    2.90735859255152   -2.96853498881405
H        -0.20290008964321    1.36353125300243   -2.43298602840931
C        -2.18033250806993    5.66794269430123    3.93062799156078
H        -2.93131283379219    5.18982404673270    3.30035129327227
H        -2.56651693984131    6.64677953320300    4.24348140064632
C        -1.95633341237370    4.76997519837882    5.15261330829669
H        -1.19562156984985    5.22552720373531    5.79774198879426
H        -2.89160773213332    4.69377737316793    5.72034458408251
C        -1.88244635697137    2.37264573459816    5.26388147219524
C        -1.77799758257319    3.04587111475416    7.63606361903763
H        -0.89743380512357    3.58200191353441    7.29652494102559
H        -1.47012418205556    2.35030885770166    8.42247954902113
H        -2.49436173926613    3.75010810528708    8.06855736066639
C        -3.31988194343123    1.29966295222243    6.94932111847715
H        -3.76065216474476    0.83593743579214    6.07168883581643
H        -4.10885838375002    1.78645021629502    7.52809227528886
H        -2.86948337518327    0.52497276015079    7.57693129663870
C        -1.22262345430937    0.03305360910525    5.06622492463782
H        -1.08801038604679    0.11087043577842    6.14013206435586
H        -0.23545695396808   -0.04941419240317    4.60141347254323
H        -1.79912303648862   -0.86495875227131    4.84094274997143
C        -1.94037186854337    1.26838832776921    3.11044831817201
H        -2.60293158922142    2.07911210410963    2.81390545435453
H        -2.33123751858747    0.32260170279747    2.73526879118425
H        -0.94612521965477    1.44428877454666    2.68189743540249
C         1.12284383785596    2.33699537796505    3.47060087497301

